Here comes the Nodelist:
l30756
Here comes the partition the job runs in:
compute
#ElmerGrid 2 2 Mesh -partition 10 8 1 -autoclean
#ElmerGrid 2 2 Mesh -metis 80 4  -autoclean
0: ELMER SOLVER (v 9.0) STARTED AT: 2023/01/05 11:36:48
0: ParCommInit:  Initialize #PEs:            1
0: MAIN: 
0: MAIN: =============================================================
0: MAIN: ElmerSolver finite element software, Welcome!
0: MAIN: This program is free software licensed under (L)GPL
0: MAIN: Copyright 1st April 1995 - , CSC - IT Center for Science Ltd.
0: MAIN: Webpage http://www.csc.fi/elmer, Email elmeradm@csc.fi
0: MAIN: Version: 9.0 (Rev: unknown, Compiled: 2022-06-01)
0: MAIN:  Running one task without MPI parallelization.
0: MAIN:  Running with just one thread per task.
0: MAIN:  MUMPS library linked in.
0: MAIN:  Intel MKL linked in.
0: MAIN: =============================================================
0: LoadInputFile: Trying to read "Run Control" section only
0: MAIN: 
0: MAIN: 
0: MAIN: -------------------------------------
0: MAIN: Reading Model: Remesh.sif
0: LoadInputFile: Scanning input file: Remesh.sif
0: LoadInputFile: Scanning only size info
0: LoadInputFile: First time visiting
0: LoadInputFile: Reading base load of sif file
0: LoadInputFile: Loading input file: Remesh.sif
0: LoadInputFile: Reading base load of sif file
0: CheckKeyword:  Unlisted keyword: [alpha] in section: [constants]
0: CheckKeyword:  Unlisted keyword: [g] in section: [constants]
0: CheckKeyword:  Unlisted keyword: [a] in section: [constants]
0: CheckKeyword:  Unlisted keyword: [rho] in section: [constants]
0: CheckKeyword:  Unlisted keyword: [distance] in section: [body force 1]
0: CheckKeyword:  Unlisted keyword: [distance condition] in section: [body force 1]
0: CheckKeyword:  Unlisted keyword: [elementsize] in section: [body force 1]
0: CheckKeyword:  Unlisted keyword: [x dim name] in section: [solver 1]
0: CheckKeyword:  Unlisted keyword: [y dim name] in section: [solver 1]
0: CheckKeyword:  Unlisted keyword: [x var name] in section: [solver 1]
0: CheckKeyword:  Unlisted keyword: [y var name] in section: [solver 1]
0: CheckKeyword:  Unlisted keyword: [x epsilon] in section: [solver 1]
0: CheckKeyword:  Unlisted keyword: [y epsilon] in section: [solver 1]
0: CheckKeyword:  Unlisted keyword: [time epsilon] in section: [solver 1]
0: CheckKeyword:  Unlisted keyword: [interpolation bias] in section: [solver 1]
0: CheckKeyword:  Unlisted keyword: [interpolation multiplier] in section: [solver 1]
0: CheckKeyword:  Unlisted keyword: [is time counter] in section: [solver 1]
0: CheckKeyword:  Unlisted keyword: [enable scaling] in section: [solver 1]
0: CheckKeyword:  Unlisted keyword: [h scale] in section: [solver 3]
0: CheckKeyword:  Unlisted keyword: [dummy distance computation] in section: [solver 3]
0: CheckKeyword:  Unlisted keyword: [metric variable name] in section: [solver 5]
0: CheckKeyword:  Unlisted keyword: [hausd] in section: [solver 5]
0: CheckKeyword:  Unlisted keyword: [hgrad] in section: [solver 5]
0: LoadInputFile: Number of BCs: 4
0: LoadInputFile: Number of Body Forces: 1
0: LoadInputFile: Number of Initial Conditions: 1
0: WARNING:: LoadInputFile: Entry missing for: Initial Condition 1
0: LoadInputFile: Number of Materials: 0
0: LoadInputFile: Number of Equations: 1
0: LoadInputFile: Number of Solvers: 6
0: LoadInputFile: Number of Bodies: 1
0: ListTagKeywords: Setting weight for keywords!
0: ListTagKeywords: No parameters width suffix: normalize by area
0: ListTagKeywords: Setting weight for keywords!
0: ListTagKeywords: No parameters width suffix: normalize by volume
0: Loading user function library: [GridDataReader]...[GridDataReader_Init0]
0: Loading user function library: [src/GroundedMaskSolver]...[GroundedMaskSolver_Init0]
0: Loading user function library: [src/DistanceSolveRD]...[DistanceSolver1_Init0]
0: Loading user function library: [ElmerIceSolvers]...[UpdateExport_Init0]
0: Loading user function library: [ElmerIce_MeshAdapt2D]...[MMG2DSolver_Init0]
0: Loading user function library: [ResultOutputSolve]...[ResultOutputSolver_Init0]
0: LoadMesh: Loading serial mesh!
0: ElmerAsciiMesh: Performing step: 1
0: ElmerAsciiMesh: Base mesh name: ./Mesh
0: ReadHeaderFile: Reading header info from file: ./Mesh/mesh.header
0: InitializeMesh: Number of nodes in mesh: 1935
0: InitializeMesh: Number of bulk elements in mesh: 3718
0: InitializeMesh: Number of boundary elements in mesh: 150
0: InitializeMesh: Initial number of max element nodes: 3
0: ElmerAsciiMesh: Performing step: 2
0: ReadNodesFile: Reading nodes from file: ./Mesh/mesh.nodes
0: SetMeshDimension: Dimension of mesh is: 2
0: SetMeshDimension: Max dimension of mesh is: 2
0: ElmerAsciiMesh: Performing step: 3
0: ReadElementsFile: Reading bulk elements from file: ./Mesh/mesh.elements
0: ElmerAsciiMesh: Performing step: 4
0: ReadBoundaryFile: Reading boundary elements from file: ./Mesh/mesh.boundary
0: PermuteNodeNumbering: Performing node mapping
0: MapBodiesAndBCs: Skipping remapping of bodies
0: MapBodiesAndBCs: Remapping boundaries
0: MapBodiesAndBCs: Minimum initial boundary index: 1
0: MapBodiesAndBCs: Maximum initial boundary index: 4
0: ElmerAsciiMesh: Performing step: 5
0: ElmerAsciiMesh: Performing step: 6
0: LoadMesh: Loading mesh done
0: LoadMesh: Preparing mesh done
0: LoadMesh: Elapsed REAL time:     0.0192 (s)
0: MeshStabParams: Computing stabilization parameters
0: MeshStabParams: Elapsed REAL time:     0.0022 (s)
0: CompleteModelKeywords: Completing keywords for mortars and mechanics!
0: MAIN: -------------------------------------
0: AddMeshCoordinates: Setting mesh coordinates and time
0: VariableAdd: Adding variable > Coordinate 1 < of size 1935
0: VariableAdd: Adding variable > Coordinate 2 < of size 1935
0: VariableAdd: Adding variable > Coordinate 3 < of size 1935
0: AddSolvers: Setting up 6 solvers
0: AddSolvers: Setting up solver 1: reader
0: AddEquationBasics: Using procedure: GridDataReader GridDataReader
0: AddEquationBasics: Setting up solver: reader
0: Loading user function library: [GridDataReader]...[GridDataReader_Init]
0: AddEquationBasics: Checking for _init solver
0: Loading user function library: [GridDataReader]...[GridDataReader_bulk]
0: AddEquationBasics: Checking for _bulk solver
0: Loading user function library: [GridDataReader]...[GridDataReader]
0: AddEquationBasics: Creating null variable with no name
0: AddSolvers: Setting up solver 2: groundedmask
0: AddEquationBasics: Using procedure: src/GroundedMaskSolver GroundedMaskSolver
0: AddEquationBasics: Setting up solver: groundedmask
0: Loading user function library: [src/GroundedMaskSolver]...[GroundedMaskSolver_Init]
0: AddEquationBasics: Checking for _init solver
0: Loading user function library: [src/GroundedMaskSolver]...[GroundedMaskSolver_bulk]
0: AddEquationBasics: Checking for _bulk solver
0: Loading user function library: [src/GroundedMaskSolver]...[GroundedMaskSolver]
0: AddEquationBasics: Treating variable string: groundedmask
0: AddEquationBasics: Creating standard variable: groundedmask
0: AddEquationBasics: Computing size of permutation vector
0: AddEquationBasics: Maximum size of permutation vector is: 1935
0: AddEquationBasics: Creating solver matrix topology
0: CreateMatrix: Creating initial permutation
0: CreateMatrix: Creating inverse of initial order of size: 1935
0: CreateMatrix: Creating list matrix for equation: groundedmask
0: MakeListMatrix: Creating list matrix
0: OptimizeBandwidth: ---------------------------------------------------------
0: OptimizeBandwidth: Computing matrix structure for: groundedmask...done.
0: OptimizeBandwidth: Half bandwidth without optimization: 1909
0: OptimizeBandwidth: 
0: OptimizeBandwidth: Bandwidth Optimization ...done.
0: OptimizeBandwidth: Half bandwidth after optimization: 77
0: OptimizeBandwidth: ---------------------------------------------------------
0: CreateMatrix: Initializing list matrix for equation
0: CRS_CreateMatrix: Creating CRS Matrix of size: 1935
0: CRS_CreateMatrix: Creating CRS Matrix with nofs: 13239
0: CreateMatrix: Matrix created
0: AddEquationBasics: Number of rows in CRS matrix: 1935
0: AddEquationBasics: Creating solver variable
0: VariableAdd: Adding variable > groundedmask < of size 1935
0: AddSolvers: Setting up solver 3: solvedistance
0: AddEquationBasics: Using procedure: src/DistanceSolveRD DistanceSolver1
0: AddEquationBasics: Setting up solver: solvedistance
0: Loading user function library: [src/DistanceSolveRD]...[DistanceSolver1_Init]
0: AddEquationBasics: Checking for _init solver
0: Loading user function library: [src/DistanceSolveRD]...[DistanceSolver1_bulk]
0: AddEquationBasics: Checking for _bulk solver
0: Loading user function library: [src/DistanceSolveRD]...[DistanceSolver1]
0: AddEquationBasics: Treating variable string: distance
0: AddEquationBasics: Creating standard variable: distance
0: AddEquationBasics: Computing size of permutation vector
0: AddEquationBasics: Maximum size of permutation vector is: 1935
0: AddEquationBasics: Creating solver matrix topology
0: CreateMatrix: Creating initial permutation
0: CreateMatrix: Creating inverse of initial order of size: 1935
0: CreateMatrix: Creating list matrix for equation: solvedistance
0: MakeListMatrix: Creating list matrix
0: OptimizeBandwidth: ---------------------------------------------------------
0: OptimizeBandwidth: Computing matrix structure for: solvedistance...done.
0: OptimizeBandwidth: Half bandwidth without optimization: 1909
0: OptimizeBandwidth: 
0: OptimizeBandwidth: Bandwidth Optimization ...done.
0: OptimizeBandwidth: Half bandwidth after optimization: 77
0: OptimizeBandwidth: ---------------------------------------------------------
0: CreateMatrix: Initializing list matrix for equation
0: CRS_CreateMatrix: Creating CRS Matrix of size: 1935
0: CRS_CreateMatrix: Creating CRS Matrix with nofs: 13239
0: CreateMatrix: Matrix created
0: AddEquationBasics: Number of rows in CRS matrix: 1935
0: AddEquationBasics: Creating solver variable
0: VariableAdd: Adding variable > distance < of size 1935
0: AddSolvers: Setting up solver 4: initialise fn
0: AddEquationBasics: Using procedure: ElmerIceSolvers UpdateExport
0: AddEquationBasics: Setting up solver: initialise fn
0: Loading user function library: [ElmerIceSolvers]...[UpdateExport_Init]
0: AddEquationBasics: Checking for _init solver
0: Loading user function library: [ElmerIceSolvers]...[UpdateExport_bulk]
0: AddEquationBasics: Checking for _bulk solver
0: Loading user function library: [ElmerIceSolvers]...[UpdateExport]
0: AddEquationBasics: Treating variable string: -nooutput initialise fn_var
0: AddEquationBasics: Creating standard variable: initialise fn_var
0: AddEquationBasics: Computing size of permutation vector
0: AddEquationBasics: Maximum size of permutation vector is: 1935
0: AddEquationBasics: Creating solver matrix topology
0: CreateMatrix: Creating initial permutation
0: CreateMatrix: Creating list matrix for equation: initialise fn
0: MakeListMatrix: Creating list matrix
0: OptimizeBandwidth: ---------------------------------------------------------
0: OptimizeBandwidth: Computing matrix structure for: initialise fn...done.
0: OptimizeBandwidth: Half bandwidth without optimization: 1909
0: OptimizeBandwidth: ---------------------------------------------------------
0: CreateMatrix: Initializing list matrix for equation
0: CRS_CreateMatrix: Creating CRS Matrix of size: 1935
0: CRS_CreateMatrix: Creating CRS Matrix with nofs: 13239
0: CreateMatrix: Matrix created
0: AddEquationBasics: Number of rows in CRS matrix: 1935
0: AddEquationBasics: Creating solver variable
0: VariableAdd: Adding variable > initialise fn_var < of size 1935
0: AddEquationBasics: Creating exported variable: zs
0: AddEquationBasics: Creating exported variable: zs
0: VariableAdd: Adding variable > zs < of size 1935
0: AddEquationBasics: Succesfully created variable: zs
0: AddEquationBasics: Creating exported variable: zb
0: AddEquationBasics: Creating exported variable: zb
0: VariableAdd: Adding variable > zb < of size 1935
0: AddEquationBasics: Succesfully created variable: zb
0: AddEquationBasics: Creating exported variable: bedrock
0: AddEquationBasics: Creating exported variable: bedrock
0: VariableAdd: Adding variable > bedrock < of size 1935
0: AddEquationBasics: Succesfully created variable: bedrock
0: AddEquationBasics: Creating exported variable: distance
0: AddEquationBasics: Creating exported variable: elementsize
0: AddEquationBasics: Creating exported variable: elementsize
0: VariableAdd: Adding variable > elementsize < of size 1935
0: AddEquationBasics: Succesfully created variable: elementsize
0: AddSolvers: Setting up solver 5: mmg
0: AddEquationBasics: Using procedure: ElmerIce_MeshAdapt2D MMG2DSolver
0: AddEquationBasics: Setting up solver: mmg
0: Loading user function library: [ElmerIce_MeshAdapt2D]...[MMG2DSolver_Init]
0: AddEquationBasics: Checking for _init solver
0: Loading user function library: [ElmerIce_MeshAdapt2D]...[MMG2DSolver_bulk]
0: AddEquationBasics: Checking for _bulk solver
0: Loading user function library: [ElmerIce_MeshAdapt2D]...[MMG2DSolver]
0: AddEquationBasics: Treating variable string: -nooutput mmg_var
0: AddEquationBasics: Creating standard variable: mmg_var
0: AddEquationBasics: Computing size of permutation vector
0: AddEquationBasics: Maximum size of permutation vector is: 1935
0: AddEquationBasics: Creating solver matrix topology
0: CreateMatrix: Creating initial permutation
0: CreateMatrix: Creating list matrix for equation: mmg
0: MakeListMatrix: Creating list matrix
0: OptimizeBandwidth: ---------------------------------------------------------
0: OptimizeBandwidth: Computing matrix structure for: mmg...done.
0: OptimizeBandwidth: Half bandwidth without optimization: 1909
0: OptimizeBandwidth: ---------------------------------------------------------
0: CreateMatrix: Initializing list matrix for equation
0: CRS_CreateMatrix: Creating CRS Matrix of size: 1935
0: CRS_CreateMatrix: Creating CRS Matrix with nofs: 13239
0: CreateMatrix: Matrix created
0: AddEquationBasics: Number of rows in CRS matrix: 1935
0: AddEquationBasics: Creating solver variable
0: VariableAdd: Adding variable > mmg_var < of size 1935
0: AddSolvers: Setting up solver 6: result output
0: AddEquationBasics: Using procedure: ResultOutputSolve ResultOutputSolver
0: AddEquationBasics: Setting up solver: result output
0: Loading user function library: [ResultOutputSolve]...[ResultOutputSolver_Init]
0: AddEquationBasics: Checking for _init solver
0: Loading user function library: [ResultOutputSolve]...[ResultOutputSolver_bulk]
0: AddEquationBasics: Checking for _bulk solver
0: Loading user function library: [ResultOutputSolve]...[ResultOutputSolver]
0: AddEquationBasics: Creating null variable with no name
0: AddSolvers: Setting up solvers done
0: AddTimeEtc: Setting time and other global variables
0: VariableAdd: Adding variable > Time < of size 1
0: VariableAdd: Adding variable > Timestep < of size 1
0: VariableAdd: Adding variable > Timestep size < of size 1
0: VariableAdd: Adding variable > Timestep interval < of size 1
0: VariableAdd: Adding variable > nonlin iter < of size 1
0: VariableAdd: Adding variable > coupled iter < of size 1
0: VariableAdd: Adding variable > Partition < of size 1
0: ElmerSolver: Random seed initialized to: 314159265
0: SetInitialConditions: Setting up initial conditions (if any)
0:  InitCond mesh:Mesh           2        1935
0: ElmerSolver: Number of timesteps to be saved: 6
0: ListTagCount: Counting tags for keyword normalization!
0: ListTagCount: Found number of normalized keywords: 0
0: SetActiveElementsTable: Creating active element table for: reader
0: SetActiveElementsTable: Number of active elements found : 3718
0: SingleSolver: Attempting to call solver
0: SingleSolver: Solver Equation string is: reader
0: GridDataReader: -----------------------------------------
0: GridDataReader: Obtaining field(s) from grid NetCDF format
0: GridDataReader: Keyword > Z Epsilon < not given, setting equal to > X Epsilon <
0: WARNING:: ListFind: 
0: WARNING:: ListFind:  Requested property: [Read full array], not found
0: WARNING:: ListFind: 
0: GridDataReader: Found 1 dimensional coordinate variable > x < : 1
0: GridDataReader: Found dimension > x < with id 1 and size 156
0: GridDataReader: Grid parameter of dimension > x < is    5.000E+02
0: GridDataReader: Range of dimension > x < is [   9.205E+05   9.980E+05]
0: GridDataReader: Found 1 dimensional coordinate variable > y < : 1
0: GridDataReader: Found dimension > y < with id 2 and size 173
0: GridDataReader: Grid parameter of dimension > y < is   -5.000E+02
0: GridDataReader: Range of dimension > y < is [   1.966E+06   1.880E+06]
0: GridDataReader: No time given, using 1st step
0: GridDataReader: Performing interpolation for variable: bedrock
0: GridDataReader: Number of proper mappings  : 1935
0: GridDataReader: Performing interpolation for variable: zs
0: GridDataReader: Number of proper mappings  : 1935
0: GridDataReader: Performing interpolation for variable: zb
0: GridDataReader: Number of proper mappings  : 1935
0: GridDataReader: Performing interpolation for variable: vx
0: VariableAddVector: Adding variable > vx < with 1 components
0: VariableAddVector: Allocating field of size: 1935
0: VariableAdd: Adding variable > vx < of size 1935
0: GridDataReader: Number of proper mappings  : 1935
0: GridDataReader: Performing interpolation for variable: vy
0: VariableAddVector: Adding variable > vy < with 1 components
0: VariableAddVector: Allocating field of size: 1935
0: VariableAdd: Adding variable > vy < of size 1935
0: GridDataReader: Number of proper mappings  : 1935
0: GridDataReader: Elapsed REAL time:     0.1400 (s)
0: GridDataReader: All done
0: GridDataReader: -----------------------------------------
0: Loading user function library: [GridDataReader]...[GridDataReader_post]
0: UpdateDependentObjects: Updating objects depending on primary field in steady state
0: DerivateExportedVariables: Derivating variables, if any!
0: DerivateExportedVariables: Derivating done for variables: 0
0: SetActiveElementsTable: Creating active element table for: groundedmask
0: SetActiveElementsTable: Number of active elements found : 3718
0: SingleSolver: Attempting to call solver
0: SingleSolver: Solver Equation string is: groundedmask
0:  Reading Zb..
0:  Done Zb.
0:  Reading bedrock..
0:  Done Bedrock.
0:  Writing Element%NodeIndexes(i)         759
0:  Writing Element%NodeIndexes(i)         377
0:  Writing Element%NodeIndexes(i)        1784
0:  Writing Element%NodeIndexes(i)        1784
0:  Writing Element%NodeIndexes(i)         377
0:  Writing Element%NodeIndexes(i)         666
0:  Writing Element%NodeIndexes(i)         618
0:  Writing Element%NodeIndexes(i)        1276
0:  Writing Element%NodeIndexes(i)         818
0:  Writing Element%NodeIndexes(i)         617
0:  Writing Element%NodeIndexes(i)         819
0:  Writing Element%NodeIndexes(i)        1277
0:  Writing Element%NodeIndexes(i)        1276
0:  Writing Element%NodeIndexes(i)         182
0:  Writing Element%NodeIndexes(i)         818
0:  Writing Element%NodeIndexes(i)        1277
0:  Writing Element%NodeIndexes(i)         819
0:  Writing Element%NodeIndexes(i)         181
0:  Writing Element%NodeIndexes(i)         763
0:  Writing Element%NodeIndexes(i)        1904
0:  Writing Element%NodeIndexes(i)         319
0:  Writing Element%NodeIndexes(i)         764
0:  Writing Element%NodeIndexes(i)         320
0:  Writing Element%NodeIndexes(i)        1903
0:  Writing Element%NodeIndexes(i)        1904
0:  Writing Element%NodeIndexes(i)         726
0:  Writing Element%NodeIndexes(i)         319
0:  Writing Element%NodeIndexes(i)        1903
0:  Writing Element%NodeIndexes(i)         320
0:  Writing Element%NodeIndexes(i)         725
0:  Writing Element%NodeIndexes(i)        1487
0:  Writing Element%NodeIndexes(i)         477
0:  Writing Element%NodeIndexes(i)        1017
0:  Writing Element%NodeIndexes(i)        1606
0:  Writing Element%NodeIndexes(i)         714
0:  Writing Element%NodeIndexes(i)        1310
0:  Writing Element%NodeIndexes(i)        1445
0:  Writing Element%NodeIndexes(i)         934
0:  Writing Element%NodeIndexes(i)         725
0:  Writing Element%NodeIndexes(i)        1446
0:  Writing Element%NodeIndexes(i)         726
0:  Writing Element%NodeIndexes(i)         933
0:  Writing Element%NodeIndexes(i)         320
0:  Writing Element%NodeIndexes(i)        1445
0:  Writing Element%NodeIndexes(i)         725
0:  Writing Element%NodeIndexes(i)         319
0:  Writing Element%NodeIndexes(i)         726
0:  Writing Element%NodeIndexes(i)        1446
0:  Writing Element%NodeIndexes(i)         250
0:  Writing Element%NodeIndexes(i)         714
0:  Writing Element%NodeIndexes(i)        1606
0:  Writing Element%NodeIndexes(i)         158
0:  Writing Element%NodeIndexes(i)         672
0:  Writing Element%NodeIndexes(i)        1423
0:  Writing Element%NodeIndexes(i)         603
0:  Writing Element%NodeIndexes(i)        1698
0:  Writing Element%NodeIndexes(i)        1233
0:  Writing Element%NodeIndexes(i)        1640
0:  Writing Element%NodeIndexes(i)          75
0:  Writing Element%NodeIndexes(i)          76
0:  Writing Element%NodeIndexes(i)         115
0:  Writing Element%NodeIndexes(i)        1639
0:  Writing Element%NodeIndexes(i)         114
0:  Writing Element%NodeIndexes(i)         254
0:  Writing Element%NodeIndexes(i)         600
0:  Writing Element%NodeIndexes(i)        1107
0:  Writing Element%NodeIndexes(i)         400
0:  Writing Element%NodeIndexes(i)        1107
0:  Writing Element%NodeIndexes(i)         600
0:  Writing Element%NodeIndexes(i)         186
0:  Writing Element%NodeIndexes(i)         679
0:  Writing Element%NodeIndexes(i)        1452
0:  Writing Element%NodeIndexes(i)         139
0:  Writing Element%NodeIndexes(i)         632
0:  Writing Element%NodeIndexes(i)        1273
0:  Writing Element%NodeIndexes(i)          51
0:  Writing Element%NodeIndexes(i)        1274
0:  Writing Element%NodeIndexes(i)         633
0:  Writing Element%NodeIndexes(i)         412
0:  Writing Element%NodeIndexes(i)        1045
0:  Writing Element%NodeIndexes(i)         672
0:  Writing Element%NodeIndexes(i)         216
0:  Writing Element%NodeIndexes(i)         911
0:  Writing Element%NodeIndexes(i)         577
0:  Writing Element%NodeIndexes(i)         578
0:  Writing Element%NodeIndexes(i)        1279
0:  Writing Element%NodeIndexes(i)         756
0:  Writing Element%NodeIndexes(i)         160
0:  Writing Element%NodeIndexes(i)         681
0:  Writing Element%NodeIndexes(i)        1826
0:  Writing Element%NodeIndexes(i)         678
0:  Writing Element%NodeIndexes(i)        1487
0:  Writing Element%NodeIndexes(i)        1017
0:  Writing Element%NodeIndexes(i)         713
0:  Writing Element%NodeIndexes(i)        1414
0:  Writing Element%NodeIndexes(i)        1134
0:  Writing Element%NodeIndexes(i)         350
0:  Writing Element%NodeIndexes(i)         645
0:  Writing Element%NodeIndexes(i)         939
0:  Writing Element%NodeIndexes(i)        1619
0:  Writing Element%NodeIndexes(i)         370
0:  Writing Element%NodeIndexes(i)         997
0:  Writing Element%NodeIndexes(i)         445
0:  Writing Element%NodeIndexes(i)         667
0:  Writing Element%NodeIndexes(i)        1099
0:  Writing Element%NodeIndexes(i)         160
0:  Writing Element%NodeIndexes(i)        1826
0:  Writing Element%NodeIndexes(i)         695
0:  Writing Element%NodeIndexes(i)         624
0:  Writing Element%NodeIndexes(i)        1347
0:  Writing Element%NodeIndexes(i)         884
0:  Writing Element%NodeIndexes(i)         623
0:  Writing Element%NodeIndexes(i)         885
0:  Writing Element%NodeIndexes(i)        1348
0:  Writing Element%NodeIndexes(i)         176
0:  Writing Element%NodeIndexes(i)         756
0:  Writing Element%NodeIndexes(i)        1279
0:  Writing Element%NodeIndexes(i)         479
0:  Writing Element%NodeIndexes(i)        1381
0:  Writing Element%NodeIndexes(i)         639
0:  Writing Element%NodeIndexes(i)        1579
0:  Writing Element%NodeIndexes(i)         378
0:  Writing Element%NodeIndexes(i)        1006
0:  Writing Element%NodeIndexes(i)         363
0:  Writing Element%NodeIndexes(i)         815
0:  Writing Element%NodeIndexes(i)        1243
0:  Writing Element%NodeIndexes(i)         224
0:  Writing Element%NodeIndexes(i)        1768
0:  Writing Element%NodeIndexes(i)         629
0:  Writing Element%NodeIndexes(i)         603
0:  Writing Element%NodeIndexes(i)        1233
0:  Writing Element%NodeIndexes(i)         924
0:  Writing Element%NodeIndexes(i)         238
0:  Writing Element%NodeIndexes(i)         955
0:  Writing Element%NodeIndexes(i)        1084
0:  Writing Element%NodeIndexes(i)         555
0:  Writing Element%NodeIndexes(i)        1084
0:  Writing Element%NodeIndexes(i)         955
0:  Writing Element%NodeIndexes(i)         366
0:  Writing Element%NodeIndexes(i)         583
0:  Writing Element%NodeIndexes(i)        1772
0:  Writing Element%NodeIndexes(i)         359
0:  Writing Element%NodeIndexes(i)        1524
0:  Writing Element%NodeIndexes(i)         905
0:  Writing Element%NodeIndexes(i)         707
0:  Writing Element%NodeIndexes(i)        1153
0:  Writing Element%NodeIndexes(i)        1175
0:  Writing Element%NodeIndexes(i)         310
0:  Writing Element%NodeIndexes(i)        1067
0:  Writing Element%NodeIndexes(i)         611
0:  Writing Element%NodeIndexes(i)         177
0:  Writing Element%NodeIndexes(i)        1191
0:  Writing Element%NodeIndexes(i)         636
0:  Writing Element%NodeIndexes(i)         429
0:  Writing Element%NodeIndexes(i)         636
0:  Writing Element%NodeIndexes(i)        1191
0:  Writing Element%NodeIndexes(i)         363
0:  Writing Element%NodeIndexes(i)        1243
0:  Writing Element%NodeIndexes(i)         896
0:  Writing Element%NodeIndexes(i)         340
0:  Writing Element%NodeIndexes(i)         884
0:  Writing Element%NodeIndexes(i)        1347
0:  Writing Element%NodeIndexes(i)         341
0:  Writing Element%NodeIndexes(i)        1348
0:  Writing Element%NodeIndexes(i)         885
0:  Writing Element%NodeIndexes(i)         542
0:  Writing Element%NodeIndexes(i)        1205
0:  Writing Element%NodeIndexes(i)        1674
0:  Writing Element%NodeIndexes(i)         263
0:  Writing Element%NodeIndexes(i)        1197
0:  Writing Element%NodeIndexes(i)         614
0:  Writing Element%NodeIndexes(i)         164
0:  Writing Element%NodeIndexes(i)         885
0:  Writing Element%NodeIndexes(i)         623
0:  Writing Element%NodeIndexes(i)         163
0:  Writing Element%NodeIndexes(i)         624
0:  Writing Element%NodeIndexes(i)         884
0:  Writing Element%NodeIndexes(i)         310
0:  Writing Element%NodeIndexes(i)         611
0:  Writing Element%NodeIndexes(i)         834
0:  Writing Element%NodeIndexes(i)         309
0:  Writing Element%NodeIndexes(i)         835
0:  Writing Element%NodeIndexes(i)         610
0:  Writing Element%NodeIndexes(i)         701
0:  Writing Element%NodeIndexes(i)         889
0:  Writing Element%NodeIndexes(i)        1539
0:  Writing Element%NodeIndexes(i)        1539
0:  Writing Element%NodeIndexes(i)         889
0:  Writing Element%NodeIndexes(i)         324
0:  Writing Element%NodeIndexes(i)         393
0:  Writing Element%NodeIndexes(i)        1533
0:  Writing Element%NodeIndexes(i)         606
0:  Writing Element%NodeIndexes(i)         322
0:  Writing Element%NodeIndexes(i)         893
0:  Writing Element%NodeIndexes(i)         601
0:  Writing Element%NodeIndexes(i)         894
0:  Writing Element%NodeIndexes(i)        1636
0:  Writing Element%NodeIndexes(i)        1091
0:  Writing Element%NodeIndexes(i)         315
0:  Writing Element%NodeIndexes(i)         700
0:  Writing Element%NodeIndexes(i)         887
0:  Writing Element%NodeIndexes(i)         319
0:  Writing Element%NodeIndexes(i)         808
0:  Writing Element%NodeIndexes(i)        1182
0:  Writing Element%NodeIndexes(i)         320
0:  Writing Element%NodeIndexes(i)        1183
0:  Writing Element%NodeIndexes(i)         807
0:  Writing Element%NodeIndexes(i)         356
0:  Writing Element%NodeIndexes(i)         654
0:  Writing Element%NodeIndexes(i)         991
0:  Writing Element%NodeIndexes(i)         355
0:  Writing Element%NodeIndexes(i)         990
0:  Writing Element%NodeIndexes(i)         653
0:  Writing Element%NodeIndexes(i)         255
0:  Writing Element%NodeIndexes(i)         931
0:  Writing Element%NodeIndexes(i)        1126
0:  Writing Element%NodeIndexes(i)         361
0:  Writing Element%NodeIndexes(i)        1047
0:  Writing Element%NodeIndexes(i)         895
0:  Writing Element%NodeIndexes(i)        1775
0:  Writing Element%NodeIndexes(i)        1040
0:  Writing Element%NodeIndexes(i)         406
0:  Writing Element%NodeIndexes(i)         463
0:  Writing Element%NodeIndexes(i)         949
0:  Writing Element%NodeIndexes(i)        1012
0:  Writing Element%NodeIndexes(i)         152
0:  Writing Element%NodeIndexes(i)         575
0:  Writing Element%NodeIndexes(i)        1825
0:  Writing Element%NodeIndexes(i)         905
0:  Writing Element%NodeIndexes(i)        1524
0:  Writing Element%NodeIndexes(i)        1908
0:  Writing Element%NodeIndexes(i)         434
0:  Writing Element%NodeIndexes(i)         758
0:  Writing Element%NodeIndexes(i)        1088
0:  Writing Element%NodeIndexes(i)         467
0:  Writing Element%NodeIndexes(i)        1134
0:  Writing Element%NodeIndexes(i)        1414
0:  Writing Element%NodeIndexes(i)         631
0:  Writing Element%NodeIndexes(i)        1518
0:  Writing Element%NodeIndexes(i)         805
0:  Writing Element%NodeIndexes(i)         679
0:  Writing Element%NodeIndexes(i)        1708
0:  Writing Element%NodeIndexes(i)        1452
0:  Writing Element%NodeIndexes(i)         307
0:  Writing Element%NodeIndexes(i)         805
0:  Writing Element%NodeIndexes(i)        1518
0:  Writing Element%NodeIndexes(i)         429
0:  Writing Element%NodeIndexes(i)         964
0:  Writing Element%NodeIndexes(i)         636
0:  Writing Element%NodeIndexes(i)        1343
0:  Writing Element%NodeIndexes(i)         364
0:  Writing Element%NodeIndexes(i)         980
0:  Writing Element%NodeIndexes(i)         231
0:  Writing Element%NodeIndexes(i)        1336
0:  Writing Element%NodeIndexes(i)         856
0:  Writing Element%NodeIndexes(i)         254
0:  Writing Element%NodeIndexes(i)         914
0:  Writing Element%NodeIndexes(i)         600
0:  Writing Element%NodeIndexes(i)         324
0:  Writing Element%NodeIndexes(i)        1063
0:  Writing Element%NodeIndexes(i)         794
0:  Writing Element%NodeIndexes(i)         152
0:  Writing Element%NodeIndexes(i)         984
0:  Writing Element%NodeIndexes(i)         575
0:  Writing Element%NodeIndexes(i)         615
0:  Writing Element%NodeIndexes(i)        1343
0:  Writing Element%NodeIndexes(i)         980
0:  Writing Element%NodeIndexes(i)         162
0:  Writing Element%NodeIndexes(i)         806
0:  Writing Element%NodeIndexes(i)        1035
0:  Writing Element%NodeIndexes(i)         319
0:  Writing Element%NodeIndexes(i)        1182
0:  Writing Element%NodeIndexes(i)        1777
0:  Writing Element%NodeIndexes(i)         320
0:  Writing Element%NodeIndexes(i)        1776
0:  Writing Element%NodeIndexes(i)        1183
0:  Writing Element%NodeIndexes(i)         216
0:  Writing Element%NodeIndexes(i)         577
0:  Writing Element%NodeIndexes(i)        1190
0:  Writing Element%NodeIndexes(i)        1370
0:  Writing Element%NodeIndexes(i)         282
0:  Writing Element%NodeIndexes(i)         926
0:  Writing Element%NodeIndexes(i)         667
0:  Writing Element%NodeIndexes(i)        1370
0:  Writing Element%NodeIndexes(i)         926
0:  Writing Element%NodeIndexes(i)         323
0:  Writing Element%NodeIndexes(i)         969
0:  Writing Element%NodeIndexes(i)         733
0:  Writing Element%NodeIndexes(i)         604
0:  Writing Element%NodeIndexes(i)        1083
0:  Writing Element%NodeIndexes(i)        1711
0:  Writing Element%NodeIndexes(i)         210
0:  Writing Element%NodeIndexes(i)        1153
0:  Writing Element%NodeIndexes(i)         707
0:  Writing Element%NodeIndexes(i)         656
0:  Writing Element%NodeIndexes(i)         803
0:  Writing Element%NodeIndexes(i)        1611
0:  Writing Element%NodeIndexes(i)        1611
0:  Writing Element%NodeIndexes(i)         803
0:  Writing Element%NodeIndexes(i)         204
0:  Writing Element%NodeIndexes(i)         158
0:  Writing Element%NodeIndexes(i)        1423
0:  Writing Element%NodeIndexes(i)        1635
0:  Writing Element%NodeIndexes(i)          23
0:  Writing Element%NodeIndexes(i)         715
0:  Writing Element%NodeIndexes(i)        1224
0:  Writing Element%NodeIndexes(i)         417
0:  Writing Element%NodeIndexes(i)         784
0:  Writing Element%NodeIndexes(i)         833
0:  Writing Element%NodeIndexes(i)         391
0:  Writing Element%NodeIndexes(i)        1727
0:  Writing Element%NodeIndexes(i)         581
0:  Writing Element%NodeIndexes(i)         392
0:  Writing Element%NodeIndexes(i)         580
0:  Writing Element%NodeIndexes(i)        1728
0:  Writing Element%NodeIndexes(i)         190
0:  Writing Element%NodeIndexes(i)        1003
0:  Writing Element%NodeIndexes(i)         947
0:  Writing Element%NodeIndexes(i)         462
0:  Writing Element%NodeIndexes(i)        1018
0:  Writing Element%NodeIndexes(i)         948
0:  Writing Element%NodeIndexes(i)         311
0:  Writing Element%NodeIndexes(i)        1223
0:  Writing Element%NodeIndexes(i)        1236
0:  Writing Element%NodeIndexes(i)        1542
0:  Writing Element%NodeIndexes(i)         922
0:  Writing Element%NodeIndexes(i)         233
0:  Writing Element%NodeIndexes(i)         720
0:  Writing Element%NodeIndexes(i)         922
0:  Writing Element%NodeIndexes(i)        1542
0:  Writing Element%NodeIndexes(i)         377
0:  Writing Element%NodeIndexes(i)        1053
0:  Writing Element%NodeIndexes(i)         684
0:  Writing Element%NodeIndexes(i)         555
0:  Writing Element%NodeIndexes(i)         947
0:  Writing Element%NodeIndexes(i)        1003
0:  Writing Element%NodeIndexes(i)         639
0:  Writing Element%NodeIndexes(i)        1381
0:  Writing Element%NodeIndexes(i)        1516
0:  Writing Element%NodeIndexes(i)         151
0:  Writing Element%NodeIndexes(i)         878
0:  Writing Element%NodeIndexes(i)        1331
0:  Writing Element%NodeIndexes(i)         205
0:  Writing Element%NodeIndexes(i)        1086
0:  Writing Element%NodeIndexes(i)         812
0:  Writing Element%NodeIndexes(i)         206
0:  Writing Element%NodeIndexes(i)         813
0:  Writing Element%NodeIndexes(i)        1087
0:  Writing Element%NodeIndexes(i)         696
0:  Writing Element%NodeIndexes(i)        1619
0:  Writing Element%NodeIndexes(i)         997
0:  Writing Element%NodeIndexes(i)         309
0:  Writing Element%NodeIndexes(i)         610
0:  Writing Element%NodeIndexes(i)         872
0:  Writing Element%NodeIndexes(i)         249
0:  Writing Element%NodeIndexes(i)         677
0:  Writing Element%NodeIndexes(i)        1677
0:  Writing Element%NodeIndexes(i)         232
0:  Writing Element%NodeIndexes(i)         855
0:  Writing Element%NodeIndexes(i)        1360
0:  Writing Element%NodeIndexes(i)         157
0:  Writing Element%NodeIndexes(i)         996
0:  Writing Element%NodeIndexes(i)         754
0:  Writing Element%NodeIndexes(i)         418
0:  Writing Element%NodeIndexes(i)         754
0:  Writing Element%NodeIndexes(i)         996
0:  Writing Element%NodeIndexes(i)         520
0:  Writing Element%NodeIndexes(i)        1126
0:  Writing Element%NodeIndexes(i)         931
0:  Writing Element%NodeIndexes(i)         391
0:  Writing Element%NodeIndexes(i)         581
0:  Writing Element%NodeIndexes(i)        1561
0:  Writing Element%NodeIndexes(i)         392
0:  Writing Element%NodeIndexes(i)        1560
0:  Writing Element%NodeIndexes(i)         580
0:  Writing Element%NodeIndexes(i)         727
0:  Writing Element%NodeIndexes(i)          75
0:  Writing Element%NodeIndexes(i)        1640
0:  Writing Element%NodeIndexes(i)         728
0:  Writing Element%NodeIndexes(i)        1639
0:  Writing Element%NodeIndexes(i)         115
0:  Writing Element%NodeIndexes(i)         224
0:  Writing Element%NodeIndexes(i)         629
0:  Writing Element%NodeIndexes(i)        1672
0:  Writing Element%NodeIndexes(i)         898
0:  Writing Element%NodeIndexes(i)        1638
0:  Writing Element%NodeIndexes(i)        1315
0:  Writing Element%NodeIndexes(i)         897
0:  Writing Element%NodeIndexes(i)        1316
0:  Writing Element%NodeIndexes(i)        1637
0:  Writing Element%NodeIndexes(i)         795
0:  Writing Element%NodeIndexes(i)        1166
0:  Writing Element%NodeIndexes(i)        1260
0:  Writing Element%NodeIndexes(i)         573
0:  Writing Element%NodeIndexes(i)        1331
0:  Writing Element%NodeIndexes(i)         878
0:  Writing Element%NodeIndexes(i)         758
0:  Writing Element%NodeIndexes(i)        1465
0:  Writing Element%NodeIndexes(i)        1088
0:  Writing Element%NodeIndexes(i)         139
0:  Writing Element%NodeIndexes(i)         990
0:  Writing Element%NodeIndexes(i)         632
0:  Writing Element%NodeIndexes(i)          51
0:  Writing Element%NodeIndexes(i)         633
0:  Writing Element%NodeIndexes(i)         991
0:  Writing Element%NodeIndexes(i)         711
0:  Writing Element%NodeIndexes(i)        1579
0:  Writing Element%NodeIndexes(i)        1006
0:  Writing Element%NodeIndexes(i)         243
0:  Writing Element%NodeIndexes(i)        1137
0:  Writing Element%NodeIndexes(i)        1267
0:  Writing Element%NodeIndexes(i)         706
0:  Writing Element%NodeIndexes(i)        1040
0:  Writing Element%NodeIndexes(i)        1775
0:  Writing Element%NodeIndexes(i)         784
0:  Writing Element%NodeIndexes(i)        1873
0:  Writing Element%NodeIndexes(i)         833
0:  Writing Element%NodeIndexes(i)         524
0:  Writing Element%NodeIndexes(i)         916
0:  Writing Element%NodeIndexes(i)        1088
0:  Writing Element%NodeIndexes(i)        1873
0:  Writing Element%NodeIndexes(i)         316
0:  Writing Element%NodeIndexes(i)         833
0:  Writing Element%NodeIndexes(i)         244
0:  Writing Element%NodeIndexes(i)        1088
0:  Writing Element%NodeIndexes(i)         916
0:  Writing Element%NodeIndexes(i)         290
0:  Writing Element%NodeIndexes(i)        1432
0:  Writing Element%NodeIndexes(i)         628
0:  Writing Element%NodeIndexes(i)         243
0:  Writing Element%NodeIndexes(i)         732
0:  Writing Element%NodeIndexes(i)        1100
0:  Writing Element%NodeIndexes(i)         265
0:  Writing Element%NodeIndexes(i)        1891
0:  Writing Element%NodeIndexes(i)         658
0:  Writing Element%NodeIndexes(i)         438
0:  Writing Element%NodeIndexes(i)        1100
0:  Writing Element%NodeIndexes(i)         732
0:  Writing Element%NodeIndexes(i)         465
0:  Writing Element%NodeIndexes(i)         895
0:  Writing Element%NodeIndexes(i)        1047
0:  Writing Element%NodeIndexes(i)         578
0:  Writing Element%NodeIndexes(i)         756
0:  Writing Element%NodeIndexes(i)        1493
0:  Writing Element%NodeIndexes(i)         814
0:  Writing Element%NodeIndexes(i)        1647
0:  Writing Element%NodeIndexes(i)        1576
0:  Writing Element%NodeIndexes(i)         185
0:  Writing Element%NodeIndexes(i)         969
0:  Writing Element%NodeIndexes(i)         742
0:  Writing Element%NodeIndexes(i)         324
0:  Writing Element%NodeIndexes(i)         889
0:  Writing Element%NodeIndexes(i)        1063
0:  Writing Element%NodeIndexes(i)         662
0:  Writing Element%NodeIndexes(i)        1070
0:  Writing Element%NodeIndexes(i)        1351
0:  Writing Element%NodeIndexes(i)         672
0:  Writing Element%NodeIndexes(i)        1045
0:  Writing Element%NodeIndexes(i)        1484
0:  Writing Element%NodeIndexes(i)         185
0:  Writing Element%NodeIndexes(i)         630
0:  Writing Element%NodeIndexes(i)        1623
0:  Writing Element%NodeIndexes(i)         366
0:  Writing Element%NodeIndexes(i)        1076
0:  Writing Element%NodeIndexes(i)         583
0:  Writing Element%NodeIndexes(i)         295
0:  Writing Element%NodeIndexes(i)        1493
0:  Writing Element%NodeIndexes(i)         756
0:  Writing Element%NodeIndexes(i)         325
0:  Writing Element%NodeIndexes(i)         656
0:  Writing Element%NodeIndexes(i)        1611
0:  Writing Element%NodeIndexes(i)         326
0:  Writing Element%NodeIndexes(i)         814
0:  Writing Element%NodeIndexes(i)        1576
0:  Writing Element%NodeIndexes(i)         596
0:  Writing Element%NodeIndexes(i)         904
0:  Writing Element%NodeIndexes(i)        1263
0:  Writing Element%NodeIndexes(i)         274
0:  Writing Element%NodeIndexes(i)        1263
0:  Writing Element%NodeIndexes(i)         904
0:  Writing Element%NodeIndexes(i)         446
0:  Writing Element%NodeIndexes(i)        1351
0:  Writing Element%NodeIndexes(i)        1070
0:  Writing Element%NodeIndexes(i)         363
0:  Writing Element%NodeIndexes(i)        1296
0:  Writing Element%NodeIndexes(i)         932
0:  Writing Element%NodeIndexes(i)         343
0:  Writing Element%NodeIndexes(i)         825
0:  Writing Element%NodeIndexes(i)         950
0:  Writing Element%NodeIndexes(i)         136
0:  Writing Element%NodeIndexes(i)        1397
0:  Writing Element%NodeIndexes(i)         743
0:  Writing Element%NodeIndexes(i)          54
0:  Writing Element%NodeIndexes(i)         744
0:  Writing Element%NodeIndexes(i)        1396
0:  Writing Element%NodeIndexes(i)         841
0:  Writing Element%NodeIndexes(i)        1605
0:  Writing Element%NodeIndexes(i)        1366
0:  Writing Element%NodeIndexes(i)         658
0:  Writing Element%NodeIndexes(i)        1891
0:  Writing Element%NodeIndexes(i)         924
0:  Writing Element%NodeIndexes(i)         677
0:  Writing Element%NodeIndexes(i)        1885
0:  Writing Element%NodeIndexes(i)        1677
0:  Writing Element%NodeIndexes(i)         428
0:  Writing Element%NodeIndexes(i)         844
0:  Writing Element%NodeIndexes(i)         945
0:  Writing Element%NodeIndexes(i)        1853
0:  Writing Element%NodeIndexes(i)         352
0:  Writing Element%NodeIndexes(i)         871
0:  Writing Element%NodeIndexes(i)         803
0:  Writing Element%NodeIndexes(i)        1853
0:  Writing Element%NodeIndexes(i)         871
0:  Writing Element%NodeIndexes(i)         201
0:  Writing Element%NodeIndexes(i)         945
0:  Writing Element%NodeIndexes(i)         844
0:  Writing Element%NodeIndexes(i)         318
0:  Writing Element%NodeIndexes(i)         713
0:  Writing Element%NodeIndexes(i)        1222
0:  Writing Element%NodeIndexes(i)          88
0:  Writing Element%NodeIndexes(i)        1394
0:  Writing Element%NodeIndexes(i)         724
0:  Writing Element%NodeIndexes(i)         831
0:  Writing Element%NodeIndexes(i)         358
0:  Writing Element%NodeIndexes(i)        1903
0:  Writing Element%NodeIndexes(i)        1904
0:  Writing Element%NodeIndexes(i)         357
0:  Writing Element%NodeIndexes(i)         832
0:  Writing Element%NodeIndexes(i)         325
0:  Writing Element%NodeIndexes(i)        1611
0:  Writing Element%NodeIndexes(i)         665
0:  Writing Element%NodeIndexes(i)        1594
0:  Writing Element%NodeIndexes(i)         996
0:  Writing Element%NodeIndexes(i)         157
0:  Writing Element%NodeIndexes(i)         166
0:  Writing Element%NodeIndexes(i)        1009
0:  Writing Element%NodeIndexes(i)         757
0:  Writing Element%NodeIndexes(i)         417
0:  Writing Element%NodeIndexes(i)        1271
0:  Writing Element%NodeIndexes(i)         768
0:  Writing Element%NodeIndexes(i)         604
0:  Writing Element%NodeIndexes(i)         954
0:  Writing Element%NodeIndexes(i)        1083
0:  Writing Element%NodeIndexes(i)         725
0:  Writing Element%NodeIndexes(i)         831
0:  Writing Element%NodeIndexes(i)        1903
0:  Writing Element%NodeIndexes(i)         726
0:  Writing Element%NodeIndexes(i)        1904
0:  Writing Element%NodeIndexes(i)         832
0:  Writing Element%NodeIndexes(i)         734
0:  Writing Element%NodeIndexes(i)        1835
0:  Writing Element%NodeIndexes(i)         817
0:  Writing Element%NodeIndexes(i)         136
0:  Writing Element%NodeIndexes(i)         137
0:  Writing Element%NodeIndexes(i)        1397
0:  Writing Element%NodeIndexes(i)          53
0:  Writing Element%NodeIndexes(i)          54
0:  Writing Element%NodeIndexes(i)        1396
0:  Writing Element%NodeIndexes(i)         224
0:  Writing Element%NodeIndexes(i)         772
0:  Writing Element%NodeIndexes(i)        1768
0:  Writing Element%NodeIndexes(i)        1835
0:  Writing Element%NodeIndexes(i)         203
0:  Writing Element%NodeIndexes(i)         817
0:  Writing Element%NodeIndexes(i)         315
0:  Writing Element%NodeIndexes(i)         887
0:  Writing Element%NodeIndexes(i)         785
0:  Writing Element%NodeIndexes(i)         219
0:  Writing Element%NodeIndexes(i)        1186
0:  Writing Element%NodeIndexes(i)         890
0:  Writing Element%NodeIndexes(i)         311
0:  Writing Element%NodeIndexes(i)        1236
0:  Writing Element%NodeIndexes(i)         687
0:  Writing Element%NodeIndexes(i)         535
0:  Writing Element%NodeIndexes(i)         685
0:  Writing Element%NodeIndexes(i)        1470
0:  Writing Element%NodeIndexes(i)         235
0:  Writing Element%NodeIndexes(i)         889
0:  Writing Element%NodeIndexes(i)         701
0:  Writing Element%NodeIndexes(i)         287
0:  Writing Element%NodeIndexes(i)        1470
0:  Writing Element%NodeIndexes(i)         685
0:  Writing Element%NodeIndexes(i)          11
0:  Writing Element%NodeIndexes(i)          12
0:  Writing Element%NodeIndexes(i)         748
0:  Writing Element%NodeIndexes(i)          32
0:  Writing Element%NodeIndexes(i)          33
0:  Writing Element%NodeIndexes(i)         749
0:  Writing Element%NodeIndexes(i)         273
0:  Writing Element%NodeIndexes(i)         638
0:  Writing Element%NodeIndexes(i)        1626
0:  Writing Element%NodeIndexes(i)         685
0:  Writing Element%NodeIndexes(i)         966
0:  Writing Element%NodeIndexes(i)        1785
0:  Writing Element%NodeIndexes(i)         162
0:  Writing Element%NodeIndexes(i)        1035
0:  Writing Element%NodeIndexes(i)        1159
0:  Writing Element%NodeIndexes(i)         205
0:  Writing Element%NodeIndexes(i)         934
0:  Writing Element%NodeIndexes(i)        1086
0:  Writing Element%NodeIndexes(i)         206
0:  Writing Element%NodeIndexes(i)        1087
0:  Writing Element%NodeIndexes(i)         933
0:  Writing Element%NodeIndexes(i)         205
0:  Writing Element%NodeIndexes(i)         831
0:  Writing Element%NodeIndexes(i)         725
0:  Writing Element%NodeIndexes(i)         206
0:  Writing Element%NodeIndexes(i)         726
0:  Writing Element%NodeIndexes(i)         832
0:  Writing Element%NodeIndexes(i)         249
0:  Writing Element%NodeIndexes(i)        1140
0:  Writing Element%NodeIndexes(i)         677
0:  Writing Element%NodeIndexes(i)         424
0:  Writing Element%NodeIndexes(i)         677
0:  Writing Element%NodeIndexes(i)        1140
0:  Writing Element%NodeIndexes(i)         437
0:  Writing Element%NodeIndexes(i)         894
0:  Writing Element%NodeIndexes(i)        1091
0:  Writing Element%NodeIndexes(i)         464
0:  Writing Element%NodeIndexes(i)         899
0:  Writing Element%NodeIndexes(i)        1060
0:  Writing Element%NodeIndexes(i)         307
0:  Writing Element%NodeIndexes(i)        1597
0:  Writing Element%NodeIndexes(i)         695
0:  Writing Element%NodeIndexes(i)         198
0:  Writing Element%NodeIndexes(i)        1785
0:  Writing Element%NodeIndexes(i)         966
0:  Writing Element%NodeIndexes(i)         194
0:  Writing Element%NodeIndexes(i)        1012
0:  Writing Element%NodeIndexes(i)         949
0:  Writing Element%NodeIndexes(i)         290
0:  Writing Element%NodeIndexes(i)         702
0:  Writing Element%NodeIndexes(i)        1666
0:  Writing Element%NodeIndexes(i)         291
0:  Writing Element%NodeIndexes(i)        1667
0:  Writing Element%NodeIndexes(i)         703
0:  Writing Element%NodeIndexes(i)         590
0:  Writing Element%NodeIndexes(i)        1666
0:  Writing Element%NodeIndexes(i)         702
0:  Writing Element%NodeIndexes(i)         589
0:  Writing Element%NodeIndexes(i)         703
0:  Writing Element%NodeIndexes(i)        1667
0:  Writing Element%NodeIndexes(i)         147
0:  Writing Element%NodeIndexes(i)        1251
0:  Writing Element%NodeIndexes(i)         807
0:  Writing Element%NodeIndexes(i)          43
0:  Writing Element%NodeIndexes(i)         808
0:  Writing Element%NodeIndexes(i)        1252
0:  Writing Element%NodeIndexes(i)         410
0:  Writing Element%NodeIndexes(i)        1149
0:  Writing Element%NodeIndexes(i)         780
0:  Writing Element%NodeIndexes(i)         411
0:  Writing Element%NodeIndexes(i)         779
0:  Writing Element%NodeIndexes(i)        1148
0:  Writing Element%NodeIndexes(i)         165
0:  Writing Element%NodeIndexes(i)        1010
0:  Writing Element%NodeIndexes(i)         850
0:  Writing Element%NodeIndexes(i)         166
0:  Writing Element%NodeIndexes(i)         849
0:  Writing Element%NodeIndexes(i)        1009
0:  Writing Element%NodeIndexes(i)         449
0:  Writing Element%NodeIndexes(i)         850
0:  Writing Element%NodeIndexes(i)        1010
0:  Writing Element%NodeIndexes(i)         448
0:  Writing Element%NodeIndexes(i)        1009
0:  Writing Element%NodeIndexes(i)         849
0:  Writing Element%NodeIndexes(i)         297
0:  Writing Element%NodeIndexes(i)        1218
0:  Writing Element%NodeIndexes(i)        1041
0:  Writing Element%NodeIndexes(i)         848
0:  Writing Element%NodeIndexes(i)        1762
0:  Writing Element%NodeIndexes(i)        1278
0:  Writing Element%NodeIndexes(i)         229
0:  Writing Element%NodeIndexes(i)         829
0:  Writing Element%NodeIndexes(i)        1105
0:  Writing Element%NodeIndexes(i)         481
0:  Writing Element%NodeIndexes(i)        1105
0:  Writing Element%NodeIndexes(i)         829
0:  Writing Element%NodeIndexes(i)         667
0:  Writing Element%NodeIndexes(i)        1483
0:  Writing Element%NodeIndexes(i)        1099
0:  Writing Element%NodeIndexes(i)         567
0:  Writing Element%NodeIndexes(i)         780
0:  Writing Element%NodeIndexes(i)        1149
0:  Writing Element%NodeIndexes(i)         568
0:  Writing Element%NodeIndexes(i)        1148
0:  Writing Element%NodeIndexes(i)         779
0:  Writing Element%NodeIndexes(i)        1531
0:  Writing Element%NodeIndexes(i)         148
0:  Writing Element%NodeIndexes(i)         149
0:  Writing Element%NodeIndexes(i)          41
0:  Writing Element%NodeIndexes(i)          42
0:  Writing Element%NodeIndexes(i)        1532
0:  Writing Element%NodeIndexes(i)         273
0:  Writing Element%NodeIndexes(i)        1155
0:  Writing Element%NodeIndexes(i)         638
0:  Writing Element%NodeIndexes(i)         317
0:  Writing Element%NodeIndexes(i)         686
0:  Writing Element%NodeIndexes(i)         854
0:  Writing Element%NodeIndexes(i)         322
0:  Writing Element%NodeIndexes(i)         601
0:  Writing Element%NodeIndexes(i)        1375
0:  Writing Element%NodeIndexes(i)         400
0:  Writing Element%NodeIndexes(i)         600
0:  Writing Element%NodeIndexes(i)        1145
0:  Writing Element%NodeIndexes(i)         657
0:  Writing Element%NodeIndexes(i)         908
0:  Writing Element%NodeIndexes(i)        1485
0:  Writing Element%NodeIndexes(i)        1348
0:  Writing Element%NodeIndexes(i)         463
0:  Writing Element%NodeIndexes(i)         919
0:  Writing Element%NodeIndexes(i)        1347
0:  Writing Element%NodeIndexes(i)         918
0:  Writing Element%NodeIndexes(i)         462
0:  Writing Element%NodeIndexes(i)         623
0:  Writing Element%NodeIndexes(i)        1348
0:  Writing Element%NodeIndexes(i)         919
0:  Writing Element%NodeIndexes(i)         624
0:  Writing Element%NodeIndexes(i)         918
0:  Writing Element%NodeIndexes(i)        1347
0:  Writing Element%NodeIndexes(i)         367
0:  Writing Element%NodeIndexes(i)         619
0:  Writing Element%NodeIndexes(i)        1665
0:  Writing Element%NodeIndexes(i)          88
0:  Writing Element%NodeIndexes(i)          89
0:  Writing Element%NodeIndexes(i)        1394
0:  Writing Element%NodeIndexes(i)         619
0:  Writing Element%NodeIndexes(i)         784
0:  Writing Element%NodeIndexes(i)        1665
0:  Writing Element%NodeIndexes(i)        1485
0:  Writing Element%NodeIndexes(i)         908
0:  Writing Element%NodeIndexes(i)         174
0:  Writing Element%NodeIndexes(i)         175
0:  Writing Element%NodeIndexes(i)        1040
0:  Writing Element%NodeIndexes(i)         706
0:  Writing Element%NodeIndexes(i)         404
0:  Writing Element%NodeIndexes(i)        1074
0:  Writing Element%NodeIndexes(i)        1021
0:  Writing Element%NodeIndexes(i)         708
0:  Writing Element%NodeIndexes(i)        1677
0:  Writing Element%NodeIndexes(i)        1885
0:  Writing Element%NodeIndexes(i)         404
0:  Writing Element%NodeIndexes(i)        1021
0:  Writing Element%NodeIndexes(i)         865
0:  Writing Element%NodeIndexes(i)         166
0:  Writing Element%NodeIndexes(i)         757
0:  Writing Element%NodeIndexes(i)        1498
0:  Writing Element%NodeIndexes(i)         418
0:  Writing Element%NodeIndexes(i)         996
0:  Writing Element%NodeIndexes(i)         605
0:  Writing Element%NodeIndexes(i)         697
0:  Writing Element%NodeIndexes(i)         996
0:  Writing Element%NodeIndexes(i)        1594
0:  Writing Element%NodeIndexes(i)         178
0:  Writing Element%NodeIndexes(i)        1382
0:  Writing Element%NodeIndexes(i)         693
0:  Writing Element%NodeIndexes(i)         504
0:  Writing Element%NodeIndexes(i)         693
0:  Writing Element%NodeIndexes(i)        1382
0:  Writing Element%NodeIndexes(i)         177
0:  Writing Element%NodeIndexes(i)         636
0:  Writing Element%NodeIndexes(i)         886
0:  Writing Element%NodeIndexes(i)        1788
0:  Writing Element%NodeIndexes(i)         384
0:  Writing Element%NodeIndexes(i)         963
0:  Writing Element%NodeIndexes(i)         228
0:  Writing Element%NodeIndexes(i)         910
0:  Writing Element%NodeIndexes(i)         712
0:  Writing Element%NodeIndexes(i)         768
0:  Writing Element%NodeIndexes(i)        1271
0:  Writing Element%NodeIndexes(i)         897
0:  Writing Element%NodeIndexes(i)         371
0:  Writing Element%NodeIndexes(i)         712
0:  Writing Element%NodeIndexes(i)         910
0:  Writing Element%NodeIndexes(i)        1649
0:  Writing Element%NodeIndexes(i)         602
0:  Writing Element%NodeIndexes(i)         404
0:  Writing Element%NodeIndexes(i)         322
0:  Writing Element%NodeIndexes(i)        1239
0:  Writing Element%NodeIndexes(i)         674
0:  Writing Element%NodeIndexes(i)         194
0:  Writing Element%NodeIndexes(i)         949
0:  Writing Element%NodeIndexes(i)         611
0:  Writing Element%NodeIndexes(i)         195
0:  Writing Element%NodeIndexes(i)         948
0:  Writing Element%NodeIndexes(i)        1018
0:  Writing Element%NodeIndexes(i)         404
0:  Writing Element%NodeIndexes(i)         602
0:  Writing Element%NodeIndexes(i)        1074
0:  Writing Element%NodeIndexes(i)          22
0:  Writing Element%NodeIndexes(i)          23
0:  Writing Element%NodeIndexes(i)        1224
0:  Writing Element%NodeIndexes(i)        1069
0:  Writing Element%NodeIndexes(i)         447
0:  Writing Element%NodeIndexes(i)        1836
0:  Writing Element%NodeIndexes(i)         418
0:  Writing Element%NodeIndexes(i)         605
0:  Writing Element%NodeIndexes(i)        1933
0:  Writing Element%NodeIndexes(i)         443
0:  Writing Element%NodeIndexes(i)         661
0:  Writing Element%NodeIndexes(i)        1259
0:  Writing Element%NodeIndexes(i)         263
0:  Writing Element%NodeIndexes(i)        1259
0:  Writing Element%NodeIndexes(i)         661
0:  Writing Element%NodeIndexes(i)         526
0:  Writing Element%NodeIndexes(i)         713
0:  Writing Element%NodeIndexes(i)        1134
0:  Writing Element%NodeIndexes(i)         464
0:  Writing Element%NodeIndexes(i)        1060
0:  Writing Element%NodeIndexes(i)        1400
0:  Writing Element%NodeIndexes(i)         324
0:  Writing Element%NodeIndexes(i)         739
0:  Writing Element%NodeIndexes(i)        1225
0:  Writing Element%NodeIndexes(i)         363
0:  Writing Element%NodeIndexes(i)         952
0:  Writing Element%NodeIndexes(i)        1296
0:  Writing Element%NodeIndexes(i)         217
0:  Writing Element%NodeIndexes(i)        1665
0:  Writing Element%NodeIndexes(i)         784
0:  Writing Element%NodeIndexes(i)         332
0:  Writing Element%NodeIndexes(i)         690
0:  Writing Element%NodeIndexes(i)        1532
0:  Writing Element%NodeIndexes(i)         331
0:  Writing Element%NodeIndexes(i)        1531
0:  Writing Element%NodeIndexes(i)         691
0:  Writing Element%NodeIndexes(i)         279
0:  Writing Element%NodeIndexes(i)         651
0:  Writing Element%NodeIndexes(i)        1294
0:  Writing Element%NodeIndexes(i)         415
0:  Writing Element%NodeIndexes(i)        1089
0:  Writing Element%NodeIndexes(i)         701
0:  Writing Element%NodeIndexes(i)         235
0:  Writing Element%NodeIndexes(i)         701
0:  Writing Element%NodeIndexes(i)        1089
0:  Writing Element%NodeIndexes(i)         810
0:  Writing Element%NodeIndexes(i)         148
0:  Writing Element%NodeIndexes(i)        1531
0:  Writing Element%NodeIndexes(i)        1532
0:  Writing Element%NodeIndexes(i)          42
0:  Writing Element%NodeIndexes(i)         809
0:  Writing Element%NodeIndexes(i)         290
0:  Writing Element%NodeIndexes(i)         628
0:  Writing Element%NodeIndexes(i)        1909
0:  Writing Element%NodeIndexes(i)         493
0:  Writing Element%NodeIndexes(i)         890
0:  Writing Element%NodeIndexes(i)        1186
0:  Writing Element%NodeIndexes(i)         165
0:  Writing Element%NodeIndexes(i)         740
0:  Writing Element%NodeIndexes(i)        1010
0:  Writing Element%NodeIndexes(i)         332
0:  Writing Element%NodeIndexes(i)         866
0:  Writing Element%NodeIndexes(i)         690
0:  Writing Element%NodeIndexes(i)         331
0:  Writing Element%NodeIndexes(i)         691
0:  Writing Element%NodeIndexes(i)         867
0:  Writing Element%NodeIndexes(i)        1798
0:  Writing Element%NodeIndexes(i)         401
0:  Writing Element%NodeIndexes(i)        1025
0:  Writing Element%NodeIndexes(i)        1799
0:  Writing Element%NodeIndexes(i)        1026
0:  Writing Element%NodeIndexes(i)         402
0:  Writing Element%NodeIndexes(i)         275
0:  Writing Element%NodeIndexes(i)         656
0:  Writing Element%NodeIndexes(i)        1286
0:  Writing Element%NodeIndexes(i)         264
0:  Writing Element%NodeIndexes(i)        1244
0:  Writing Element%NodeIndexes(i)        1345
0:  Writing Element%NodeIndexes(i)         146
0:  Writing Element%NodeIndexes(i)         147
0:  Writing Element%NodeIndexes(i)         807
0:  Writing Element%NodeIndexes(i)          43
0:  Writing Element%NodeIndexes(i)          44
0:  Writing Element%NodeIndexes(i)         808
0:  Writing Element%NodeIndexes(i)          11
0:  Writing Element%NodeIndexes(i)         748
0:  Writing Element%NodeIndexes(i)        1489
0:  Writing Element%NodeIndexes(i)          33
0:  Writing Element%NodeIndexes(i)        1488
0:  Writing Element%NodeIndexes(i)         749
0:  Writing Element%NodeIndexes(i)         405
0:  Writing Element%NodeIndexes(i)         705
0:  Writing Element%NodeIndexes(i)         878
0:  Writing Element%NodeIndexes(i)         400
0:  Writing Element%NodeIndexes(i)         694
0:  Writing Element%NodeIndexes(i)         904
0:  Writing Element%NodeIndexes(i)         274
0:  Writing Element%NodeIndexes(i)         904
0:  Writing Element%NodeIndexes(i)         694
0:  Writing Element%NodeIndexes(i)         439
0:  Writing Element%NodeIndexes(i)         890
0:  Writing Element%NodeIndexes(i)         679
0:  Writing Element%NodeIndexes(i)         245
0:  Writing Element%NodeIndexes(i)        1245
0:  Writing Element%NodeIndexes(i)        1070
0:  Writing Element%NodeIndexes(i)         393
0:  Writing Element%NodeIndexes(i)         606
0:  Writing Element%NodeIndexes(i)        1202
0:  Writing Element%NodeIndexes(i)         425
0:  Writing Element%NodeIndexes(i)         798
0:  Writing Element%NodeIndexes(i)        1016
0:  Writing Element%NodeIndexes(i)         172
0:  Writing Element%NodeIndexes(i)        1016
0:  Writing Element%NodeIndexes(i)         798
0:  Writing Element%NodeIndexes(i)         473
0:  Writing Element%NodeIndexes(i)         790
0:  Writing Element%NodeIndexes(i)        1199
0:  Writing Element%NodeIndexes(i)         457
0:  Writing Element%NodeIndexes(i)        1087
0:  Writing Element%NodeIndexes(i)         809
0:  Writing Element%NodeIndexes(i)         456
0:  Writing Element%NodeIndexes(i)         810
0:  Writing Element%NodeIndexes(i)        1086
0:  Writing Element%NodeIndexes(i)         275
0:  Writing Element%NodeIndexes(i)        1286
0:  Writing Element%NodeIndexes(i)         660
0:  Writing Element%NodeIndexes(i)         324
0:  Writing Element%NodeIndexes(i)        1225
0:  Writing Element%NodeIndexes(i)        1539
0:  Writing Element%NodeIndexes(i)         207
0:  Writing Element%NodeIndexes(i)        1050
0:  Writing Element%NodeIndexes(i)         702
0:  Writing Element%NodeIndexes(i)         388
0:  Writing Element%NodeIndexes(i)        1589
0:  Writing Element%NodeIndexes(i)         781
0:  Writing Element%NodeIndexes(i)         332
0:  Writing Element%NodeIndexes(i)         809
0:  Writing Element%NodeIndexes(i)        1087
0:  Writing Element%NodeIndexes(i)         331
0:  Writing Element%NodeIndexes(i)        1086
0:  Writing Element%NodeIndexes(i)         810
0:  Writing Element%NodeIndexes(i)         415
0:  Writing Element%NodeIndexes(i)         701
0:  Writing Element%NodeIndexes(i)        1038
0:  Writing Element%NodeIndexes(i)         237
0:  Writing Element%NodeIndexes(i)        1163
0:  Writing Element%NodeIndexes(i)         958
0:  Writing Element%NodeIndexes(i)         236
0:  Writing Element%NodeIndexes(i)         957
0:  Writing Element%NodeIndexes(i)        1162
0:  Writing Element%NodeIndexes(i)         431
0:  Writing Element%NodeIndexes(i)         692
0:  Writing Element%NodeIndexes(i)        1152
0:  Writing Element%NodeIndexes(i)         218
0:  Writing Element%NodeIndexes(i)        1152
0:  Writing Element%NodeIndexes(i)         692
0:  Writing Element%NodeIndexes(i)         388
0:  Writing Element%NodeIndexes(i)         953
0:  Writing Element%NodeIndexes(i)        1589
0:  Writing Element%NodeIndexes(i)         309
0:  Writing Element%NodeIndexes(i)         848
0:  Writing Element%NodeIndexes(i)        1278
0:  Writing Element%NodeIndexes(i)         958
0:  Writing Element%NodeIndexes(i)        1163
0:  Writing Element%NodeIndexes(i)        1722
0:  Writing Element%NodeIndexes(i)         957
0:  Writing Element%NodeIndexes(i)        1721
0:  Writing Element%NodeIndexes(i)        1162
0:  Writing Element%NodeIndexes(i)         336
0:  Writing Element%NodeIndexes(i)         745
0:  Writing Element%NodeIndexes(i)        1804
0:  Writing Element%NodeIndexes(i)         609
0:  Writing Element%NodeIndexes(i)        1345
0:  Writing Element%NodeIndexes(i)        1244
0:  Writing Element%NodeIndexes(i)         203
0:  Writing Element%NodeIndexes(i)         915
0:  Writing Element%NodeIndexes(i)         817
0:  Writing Element%NodeIndexes(i)         283
0:  Writing Element%NodeIndexes(i)         906
0:  Writing Element%NodeIndexes(i)        1583
0:  Writing Element%NodeIndexes(i)         284
0:  Writing Element%NodeIndexes(i)        1584
0:  Writing Element%NodeIndexes(i)         907
0:  Writing Element%NodeIndexes(i)         745
0:  Writing Element%NodeIndexes(i)         912
0:  Writing Element%NodeIndexes(i)        1804
0:  Writing Element%NodeIndexes(i)         211
0:  Writing Element%NodeIndexes(i)         841
0:  Writing Element%NodeIndexes(i)        1366
0:  Writing Element%NodeIndexes(i)         335
0:  Writing Element%NodeIndexes(i)         786
0:  Writing Element%NodeIndexes(i)        1442
0:  Writing Element%NodeIndexes(i)         416
0:  Writing Element%NodeIndexes(i)         769
0:  Writing Element%NodeIndexes(i)        1322
0:  Writing Element%NodeIndexes(i)         787
0:  Writing Element%NodeIndexes(i)        1788
0:  Writing Element%NodeIndexes(i)         963
0:  Writing Element%NodeIndexes(i)         542
0:  Writing Element%NodeIndexes(i)        1674
0:  Writing Element%NodeIndexes(i)        1051
0:  Writing Element%NodeIndexes(i)         695
0:  Writing Element%NodeIndexes(i)        1597
0:  Writing Element%NodeIndexes(i)         877
0:  Writing Element%NodeIndexes(i)         195
0:  Writing Element%NodeIndexes(i)        1580
0:  Writing Element%NodeIndexes(i)         872
0:  Writing Element%NodeIndexes(i)         344
0:  Writing Element%NodeIndexes(i)         640
0:  Writing Element%NodeIndexes(i)        1477
0:  Writing Element%NodeIndexes(i)         160
0:  Writing Element%NodeIndexes(i)         877
0:  Writing Element%NodeIndexes(i)         680
0:  Writing Element%NodeIndexes(i)         403
0:  Writing Element%NodeIndexes(i)         680
0:  Writing Element%NodeIndexes(i)         877
0:  Writing Element%NodeIndexes(i)         288
0:  Writing Element%NodeIndexes(i)        1709
0:  Writing Element%NodeIndexes(i)         984
0:  Writing Element%NodeIndexes(i)         318
0:  Writing Element%NodeIndexes(i)        1222
0:  Writing Element%NodeIndexes(i)        1424
0:  Writing Element%NodeIndexes(i)         337
0:  Writing Element%NodeIndexes(i)         696
0:  Writing Element%NodeIndexes(i)        1161
0:  Writing Element%NodeIndexes(i)         411
0:  Writing Element%NodeIndexes(i)         819
0:  Writing Element%NodeIndexes(i)         710
0:  Writing Element%NodeIndexes(i)         410
0:  Writing Element%NodeIndexes(i)         709
0:  Writing Element%NodeIndexes(i)         818
0:  Writing Element%NodeIndexes(i)        1487
0:  Writing Element%NodeIndexes(i)         987
0:  Writing Element%NodeIndexes(i)         365
0:  Writing Element%NodeIndexes(i)         342
0:  Writing Element%NodeIndexes(i)        1221
0:  Writing Element%NodeIndexes(i)         635
0:  Writing Element%NodeIndexes(i)         317
0:  Writing Element%NodeIndexes(i)        1913
0:  Writing Element%NodeIndexes(i)         686
0:  Writing Element%NodeIndexes(i)         403
0:  Writing Element%NodeIndexes(i)         817
0:  Writing Element%NodeIndexes(i)         915
0:  Writing Element%NodeIndexes(i)         515
0:  Writing Element%NodeIndexes(i)        1315
0:  Writing Element%NodeIndexes(i)        1638
0:  Writing Element%NodeIndexes(i)         516
0:  Writing Element%NodeIndexes(i)        1637
0:  Writing Element%NodeIndexes(i)        1316
0:  Writing Element%NodeIndexes(i)         183
0:  Writing Element%NodeIndexes(i)         898
0:  Writing Element%NodeIndexes(i)        1315
0:  Writing Element%NodeIndexes(i)         184
0:  Writing Element%NodeIndexes(i)        1316
0:  Writing Element%NodeIndexes(i)         897
0:  Writing Element%NodeIndexes(i)         398
0:  Writing Element%NodeIndexes(i)        1055
0:  Writing Element%NodeIndexes(i)         626
0:  Writing Element%NodeIndexes(i)         397
0:  Writing Element%NodeIndexes(i)         625
0:  Writing Element%NodeIndexes(i)        1054
0:  Writing Element%NodeIndexes(i)         678
0:  Writing Element%NodeIndexes(i)         987
0:  Writing Element%NodeIndexes(i)        1487
0:  Writing Element%NodeIndexes(i)         342
0:  Writing Element%NodeIndexes(i)         635
0:  Writing Element%NodeIndexes(i)        1261
0:  Writing Element%NodeIndexes(i)         160
0:  Writing Element%NodeIndexes(i)        1698
0:  Writing Element%NodeIndexes(i)         681
0:  Writing Element%NodeIndexes(i)         138
0:  Writing Element%NodeIndexes(i)         139
0:  Writing Element%NodeIndexes(i)        1273
0:  Writing Element%NodeIndexes(i)          51
0:  Writing Element%NodeIndexes(i)          52
0:  Writing Element%NodeIndexes(i)        1274
0:  Writing Element%NodeIndexes(i)         240
0:  Writing Element%NodeIndexes(i)        1425
0:  Writing Element%NodeIndexes(i)        1219
0:  Writing Element%NodeIndexes(i)         393
0:  Writing Element%NodeIndexes(i)         704
0:  Writing Element%NodeIndexes(i)        1533
0:  Writing Element%NodeIndexes(i)         573
0:  Writing Element%NodeIndexes(i)        1350
0:  Writing Element%NodeIndexes(i)        1331
0:  Writing Element%NodeIndexes(i)         745
0:  Writing Element%NodeIndexes(i)        1069
0:  Writing Element%NodeIndexes(i)        1836
0:  Writing Element%NodeIndexes(i)         159
0:  Writing Element%NodeIndexes(i)         954
0:  Writing Element%NodeIndexes(i)        1265
0:  Writing Element%NodeIndexes(i)         604
0:  Writing Element%NodeIndexes(i)        1265
0:  Writing Element%NodeIndexes(i)         954
0:  Writing Element%NodeIndexes(i)         313
0:  Writing Element%NodeIndexes(i)         852
0:  Writing Element%NodeIndexes(i)         849
0:  Writing Element%NodeIndexes(i)         312
0:  Writing Element%NodeIndexes(i)         850
0:  Writing Element%NodeIndexes(i)         851
0:  Writing Element%NodeIndexes(i)         449
0:  Writing Element%NodeIndexes(i)         851
0:  Writing Element%NodeIndexes(i)         850
0:  Writing Element%NodeIndexes(i)         448
0:  Writing Element%NodeIndexes(i)         849
0:  Writing Element%NodeIndexes(i)         852
0:  Writing Element%NodeIndexes(i)         398
0:  Writing Element%NodeIndexes(i)         626
0:  Writing Element%NodeIndexes(i)        1132
0:  Writing Element%NodeIndexes(i)         426
0:  Writing Element%NodeIndexes(i)         683
0:  Writing Element%NodeIndexes(i)        1230
0:  Writing Element%NodeIndexes(i)         427
0:  Writing Element%NodeIndexes(i)        1229
0:  Writing Element%NodeIndexes(i)         682
0:  Writing Element%NodeIndexes(i)         671
0:  Writing Element%NodeIndexes(i)        1109
0:  Writing Element%NodeIndexes(i)        1549
0:  Writing Element%NodeIndexes(i)         224
0:  Writing Element%NodeIndexes(i)        1672
0:  Writing Element%NodeIndexes(i)         746
0:  Writing Element%NodeIndexes(i)         335
0:  Writing Element%NodeIndexes(i)        1442
0:  Writing Element%NodeIndexes(i)         968
0:  Writing Element%NodeIndexes(i)         131
0:  Writing Element%NodeIndexes(i)        1146
0:  Writing Element%NodeIndexes(i)        1300
0:  Writing Element%NodeIndexes(i)          59
0:  Writing Element%NodeIndexes(i)        1299
0:  Writing Element%NodeIndexes(i)        1147
0:  Writing Element%NodeIndexes(i)         387
0:  Writing Element%NodeIndexes(i)         789
0:  Writing Element%NodeIndexes(i)        1007
0:  Writing Element%NodeIndexes(i)         478
0:  Writing Element%NodeIndexes(i)        1113
0:  Writing Element%NodeIndexes(i)        1459
0:  Writing Element%NodeIndexes(i)         194
0:  Writing Element%NodeIndexes(i)         611
0:  Writing Element%NodeIndexes(i)        1067
0:  Writing Element%NodeIndexes(i)         263
0:  Writing Element%NodeIndexes(i)         614
0:  Writing Element%NodeIndexes(i)        1042
0:  Writing Element%NodeIndexes(i)         614
0:  Writing Element%NodeIndexes(i)         872
0:  Writing Element%NodeIndexes(i)        1580
0:  Writing Element%NodeIndexes(i)         240
0:  Writing Element%NodeIndexes(i)         825
0:  Writing Element%NodeIndexes(i)        1425
0:  Writing Element%NodeIndexes(i)         264
0:  Writing Element%NodeIndexes(i)         640
0:  Writing Element%NodeIndexes(i)        1244
0:  Writing Element%NodeIndexes(i)         180
0:  Writing Element%NodeIndexes(i)        1199
0:  Writing Element%NodeIndexes(i)         790
0:  Writing Element%NodeIndexes(i)          48
0:  Writing Element%NodeIndexes(i)         774
0:  Writing Element%NodeIndexes(i)        1393
0:  Writing Element%NodeIndexes(i)         142
0:  Writing Element%NodeIndexes(i)        1392
0:  Writing Element%NodeIndexes(i)         773
0:  Writing Element%NodeIndexes(i)         408
0:  Writing Element%NodeIndexes(i)        1156
0:  Writing Element%NodeIndexes(i)         658
0:  Writing Element%NodeIndexes(i)         210
0:  Writing Element%NodeIndexes(i)         658
0:  Writing Element%NodeIndexes(i)        1156
0:  Writing Element%NodeIndexes(i)         165
0:  Writing Element%NodeIndexes(i)        1469
0:  Writing Element%NodeIndexes(i)         740
0:  Writing Element%NodeIndexes(i)         480
0:  Writing Element%NodeIndexes(i)         864
0:  Writing Element%NodeIndexes(i)        1105
0:  Writing Element%NodeIndexes(i)         619
0:  Writing Element%NodeIndexes(i)        1873
0:  Writing Element%NodeIndexes(i)         784
0:  Writing Element%NodeIndexes(i)         229
0:  Writing Element%NodeIndexes(i)        1105
0:  Writing Element%NodeIndexes(i)         864
0:  Writing Element%NodeIndexes(i)        1549
0:  Writing Element%NodeIndexes(i)        1109
0:  Writing Element%NodeIndexes(i)         339
0:  Writing Element%NodeIndexes(i)         432
0:  Writing Element%NodeIndexes(i)         678
0:  Writing Element%NodeIndexes(i)        1017
0:  Writing Element%NodeIndexes(i)         338
0:  Writing Element%NodeIndexes(i)         737
0:  Writing Element%NodeIndexes(i)        1018
0:  Writing Element%NodeIndexes(i)         626
0:  Writing Element%NodeIndexes(i)        1457
0:  Writing Element%NodeIndexes(i)        1132
0:  Writing Element%NodeIndexes(i)         338
0:  Writing Element%NodeIndexes(i)         748
0:  Writing Element%NodeIndexes(i)        1426
0:  Writing Element%NodeIndexes(i)         780
0:  Writing Element%NodeIndexes(i)        1798
0:  Writing Element%NodeIndexes(i)        1025
0:  Writing Element%NodeIndexes(i)         779
0:  Writing Element%NodeIndexes(i)        1026
0:  Writing Element%NodeIndexes(i)        1799
0:  Writing Element%NodeIndexes(i)         337
0:  Writing Element%NodeIndexes(i)        1012
0:  Writing Element%NodeIndexes(i)         731
0:  Writing Element%NodeIndexes(i)         433
0:  Writing Element%NodeIndexes(i)         674
0:  Writing Element%NodeIndexes(i)        1068
0:  Writing Element%NodeIndexes(i)         471
0:  Writing Element%NodeIndexes(i)         753
0:  Writing Element%NodeIndexes(i)        1214
0:  Writing Element%NodeIndexes(i)         287
0:  Writing Element%NodeIndexes(i)        1214
0:  Writing Element%NodeIndexes(i)         753
0:  Writing Element%NodeIndexes(i)         307
0:  Writing Element%NodeIndexes(i)         695
0:  Writing Element%NodeIndexes(i)        1227
0:  Writing Element%NodeIndexes(i)         323
0:  Writing Element%NodeIndexes(i)         820
0:  Writing Element%NodeIndexes(i)         742
0:  Writing Element%NodeIndexes(i)         332
0:  Writing Element%NodeIndexes(i)        1532
0:  Writing Element%NodeIndexes(i)         809
0:  Writing Element%NodeIndexes(i)         331
0:  Writing Element%NodeIndexes(i)         810
0:  Writing Element%NodeIndexes(i)        1531
0:  Writing Element%NodeIndexes(i)         164
0:  Writing Element%NodeIndexes(i)         623
0:  Writing Element%NodeIndexes(i)        1461
0:  Writing Element%NodeIndexes(i)         163
0:  Writing Element%NodeIndexes(i)        1462
0:  Writing Element%NodeIndexes(i)         624
0:  Writing Element%NodeIndexes(i)         662
0:  Writing Element%NodeIndexes(i)        1612
0:  Writing Element%NodeIndexes(i)        1070
0:  Writing Element%NodeIndexes(i)         356
0:  Writing Element%NodeIndexes(i)         633
0:  Writing Element%NodeIndexes(i)         982
0:  Writing Element%NodeIndexes(i)         355
0:  Writing Element%NodeIndexes(i)         981
0:  Writing Element%NodeIndexes(i)         632
0:  Writing Element%NodeIndexes(i)         580
0:  Writing Element%NodeIndexes(i)        1269
0:  Writing Element%NodeIndexes(i)        1408
0:  Writing Element%NodeIndexes(i)         581
0:  Writing Element%NodeIndexes(i)        1409
0:  Writing Element%NodeIndexes(i)        1270
0:  Writing Element%NodeIndexes(i)         825
0:  Writing Element%NodeIndexes(i)        1240
0:  Writing Element%NodeIndexes(i)         950
0:  Writing Element%NodeIndexes(i)         274
0:  Writing Element%NodeIndexes(i)        1132
0:  Writing Element%NodeIndexes(i)        1457
0:  Writing Element%NodeIndexes(i)         186
0:  Writing Element%NodeIndexes(i)        1452
0:  Writing Element%NodeIndexes(i)         775
0:  Writing Element%NodeIndexes(i)         556
0:  Writing Element%NodeIndexes(i)         775
0:  Writing Element%NodeIndexes(i)        1452
0:  Writing Element%NodeIndexes(i)         484
0:  Writing Element%NodeIndexes(i)        1118
0:  Writing Element%NodeIndexes(i)         874
0:  Writing Element%NodeIndexes(i)         171
0:  Writing Element%NodeIndexes(i)         874
0:  Writing Element%NodeIndexes(i)        1118
0:  Writing Element%NodeIndexes(i)         231
0:  Writing Element%NodeIndexes(i)         856
0:  Writing Element%NodeIndexes(i)        1554
0:  Writing Element%NodeIndexes(i)         232
0:  Writing Element%NodeIndexes(i)        1553
0:  Writing Element%NodeIndexes(i)         855
0:  Writing Element%NodeIndexes(i)         769
0:  Writing Element%NodeIndexes(i)         898
0:  Writing Element%NodeIndexes(i)        1322
0:  Writing Element%NodeIndexes(i)         367
0:  Writing Element%NodeIndexes(i)        1096
0:  Writing Element%NodeIndexes(i)         619
0:  Writing Element%NodeIndexes(i)         386
0:  Writing Element%NodeIndexes(i)         913
0:  Writing Element%NodeIndexes(i)         756
0:  Writing Element%NodeIndexes(i)         295
0:  Writing Element%NodeIndexes(i)         756
0:  Writing Element%NodeIndexes(i)         913
0:  Writing Element%NodeIndexes(i)         481
0:  Writing Element%NodeIndexes(i)         829
0:  Writing Element%NodeIndexes(i)         765
0:  Writing Element%NodeIndexes(i)         312
0:  Writing Element%NodeIndexes(i)         765
0:  Writing Element%NodeIndexes(i)         829
0:  Writing Element%NodeIndexes(i)         298
0:  Writing Element%NodeIndexes(i)        1085
0:  Writing Element%NodeIndexes(i)        1697
0:  Writing Element%NodeIndexes(i)         280
0:  Writing Element%NodeIndexes(i)         693
0:  Writing Element%NodeIndexes(i)        1780
0:  Writing Element%NodeIndexes(i)        1702
0:  Writing Element%NodeIndexes(i)        1142
0:  Writing Element%NodeIndexes(i)         261
0:  Writing Element%NodeIndexes(i)         374
0:  Writing Element%NodeIndexes(i)        1303
0:  Writing Element%NodeIndexes(i)        1471
0:  Writing Element%NodeIndexes(i)         342
0:  Writing Element%NodeIndexes(i)         770
0:  Writing Element%NodeIndexes(i)        1507
0:  Writing Element%NodeIndexes(i)         209
0:  Writing Element%NodeIndexes(i)        1166
0:  Writing Element%NodeIndexes(i)         795
0:  Writing Element%NodeIndexes(i)         282
0:  Writing Element%NodeIndexes(i)         956
0:  Writing Element%NodeIndexes(i)        1568
0:  Writing Element%NodeIndexes(i)         277
0:  Writing Element%NodeIndexes(i)         706
0:  Writing Element%NodeIndexes(i)        1775
0:  Writing Element%NodeIndexes(i)         277
0:  Writing Element%NodeIndexes(i)        1775
0:  Writing Element%NodeIndexes(i)         707
0:  Writing Element%NodeIndexes(i)         408
0:  Writing Element%NodeIndexes(i)         658
0:  Writing Element%NodeIndexes(i)         924
0:  Writing Element%NodeIndexes(i)         549
0:  Writing Element%NodeIndexes(i)        1612
0:  Writing Element%NodeIndexes(i)         873
[...]
0: VariableAdd: Adding variable > zb < of size 10580
0: VariableGet: Performing interpolation with projector
0: InterpolateMesh2Mesh: Applying exiting projector in interpolation
0: InterpolateMeshToMesh: Number of unfound nodes in serial: 10580
0:  Interpolation range:zb  -534.625074441418        60.7380136534833     
0: VariableGet: Interpolation time for > zb < :   9.960E-04
0: VariableAdd: Adding variable > bedrock < of size 10580
0: VariableGet: Performing interpolation with projector
0: InterpolateMesh2Mesh: Applying exiting projector in interpolation
0: InterpolateMeshToMesh: Number of unfound nodes in serial: 10580
0:  Interpolation range:bedrock  -595.262709830878        60.7380136534833     
0: VariableGet: Interpolation time for > bedrock < :   9.910E-04
0: VariableAdd: Adding variable > elementsize < of size 10580
0: VariableGet: Performing interpolation with projector
0: InterpolateMesh2Mesh: Applying exiting projector in interpolation
0: InterpolateMeshToMesh: Number of unfound nodes in serial: 10580
0:  Interpolation range:elementsize   500.000000000000        2000.00000000000     
0: VariableGet: Interpolation time for > elementsize < :   9.980E-04
0: VariableAdd: Adding variable > mmg_var < of size 10580
0: VariableGet: Performing interpolation with projector
0: InterpolateMesh2Mesh: Applying exiting projector in interpolation
0: InterpolateMeshToMesh: Number of unfound nodes in serial: 10580
0:  Interpolation range:mmg_var  0.000000000000000E+000  0.000000000000000E+000
0: VariableGet: Interpolation time for > mmg_var < :   9.980E-04
0: VariableAdd: Adding variable > partition < of size 1
0: VariableAdd: Adding variable > vx < of size 10580
0: VariableGet: Performing interpolation with projector
0: InterpolateMesh2Mesh: Applying exiting projector in interpolation
0: InterpolateMeshToMesh: Number of unfound nodes in serial: 10580
0:  Interpolation range:vx  -82.0126506286621        143.285549168232     
0: VariableGet: Interpolation time for > vx < :   1.035E-03
0: VariableAdd: Adding variable > vy < of size 10580
0: VariableGet: Performing interpolation with projector
0: InterpolateMesh2Mesh: Applying exiting projector in interpolation
0: InterpolateMeshToMesh: Number of unfound nodes in serial: 10580
0:  Interpolation range:vy  -12.5437736469185        299.359397939665     
0: VariableGet: Interpolation time for > vy < :   1.023E-03
0: MeshStabParams: Computing stabilization parameters
0: MeshStabParams: Elapsed REAL time:     0.0067 (s)
0: CreateMatrix: Creating initial permutation
0: CreateMatrix: Creating inverse of initial order of size: 10580
0: CreateMatrix: Creating list matrix for equation: groundedmask
0: MakeListMatrix: Creating list matrix
0: OptimizeBandwidth: ---------------------------------------------------------
0: OptimizeBandwidth: Computing matrix structure for: groundedmask...done.
0: OptimizeBandwidth: Half bandwidth without optimization: 10430
0: OptimizeBandwidth: 
0: OptimizeBandwidth: Bandwidth Optimization ...done.
0: OptimizeBandwidth: Half bandwidth after optimization: 236
0: OptimizeBandwidth: ---------------------------------------------------------
0: CreateMatrix: Initializing list matrix for equation
0: CRS_CreateMatrix: Creating CRS Matrix of size: 10580
0: CRS_CreateMatrix: Creating CRS Matrix with nofs: 73728
0: CreateMatrix: Matrix created
0: MMGSolver: Updated for variable: groundedmask
0: CreateMatrix: Creating initial permutation
0: CreateMatrix: Creating inverse of initial order of size: 10580
0: CreateMatrix: Creating list matrix for equation: solvedistance
0: MakeListMatrix: Creating list matrix
0: OptimizeBandwidth: ---------------------------------------------------------
0: OptimizeBandwidth: Computing matrix structure for: solvedistance...done.
0: OptimizeBandwidth: Half bandwidth without optimization: 10430
0: OptimizeBandwidth: 
0: OptimizeBandwidth: Bandwidth Optimization ...done.
0: OptimizeBandwidth: Half bandwidth after optimization: 236
0: OptimizeBandwidth: ---------------------------------------------------------
0: CreateMatrix: Initializing list matrix for equation
0: CRS_CreateMatrix: Creating CRS Matrix of size: 10580
0: CRS_CreateMatrix: Creating CRS Matrix with nofs: 73728
0: CreateMatrix: Matrix created
0: MMGSolver: Updated for variable: distance
0: CreateMatrix: Creating initial permutation
0: CreateMatrix: Creating list matrix for equation: initialise fn
0: MakeListMatrix: Creating list matrix
0: OptimizeBandwidth: ---------------------------------------------------------
0: OptimizeBandwidth: Computing matrix structure for: initialise fn...done.
0: OptimizeBandwidth: Half bandwidth without optimization: 10430
0: OptimizeBandwidth: ---------------------------------------------------------
0: CreateMatrix: Initializing list matrix for equation
0: CRS_CreateMatrix: Creating CRS Matrix of size: 10580
0: CRS_CreateMatrix: Creating CRS Matrix with nofs: 73728
0: CreateMatrix: Matrix created
0: MMGSolver: Updated for variable: initialise fn_var
0: CreateMatrix: Creating initial permutation
0: CreateMatrix: Creating list matrix for equation: mmg
0: MakeListMatrix: Creating list matrix
0: OptimizeBandwidth: ---------------------------------------------------------
0: OptimizeBandwidth: Computing matrix structure for: mmg...done.
0: OptimizeBandwidth: Half bandwidth without optimization: 10430
0: OptimizeBandwidth: ---------------------------------------------------------
0: CreateMatrix: Initializing list matrix for equation
0: CRS_CreateMatrix: Creating CRS Matrix of size: 10580
0: CRS_CreateMatrix: Creating CRS Matrix with nofs: 73728
0: CreateMatrix: Matrix created
0: MMGSolver: Updated for variable: mmg_var
0: MMGSolver: --**--New mesh ready
0: MMGSolver: --**--    NumberOfNodes:10580
0: MMGSolver: --**--    NumberOfBulkElements: 20995
0: MMGSolver: --**--    NumberOfEdges: 0
0: MMGSolver: --**--    NumberOfBoundaryElements: 163
0: Loading user function library: [ElmerIce_MeshAdapt2D]...[MMG2DSolver_post]
0: UpdateDependentObjects: Updating objects depending on primary field in steady state
0: DerivateExportedVariables: Derivating variables, if any!
0: DerivateExportedVariables: Derivating done for variables: 0
0: SaveCurrent: Saving information on current step
0: SetActiveElementsTable: Creating active element table for: result output
0: SetActiveElementsTable: Number of active elements found : 20995
0: SingleSolver: Attempting to call solver
0: SingleSolver: Solver Equation string is: result output
0: ResultOutputSolver: -------------------------------------
0: ResultOutputSolver: Number of output meshes: 2
0: ResultOutputSolver: Working on mesh: square_iso_N6
0: ResultOutputSolver: Dimension of mesh is: 2
0: ResultOutputSolver: Recreating list for saving
0: CreateListForSaving: Field Variables for Saving
0: CreateListForSaving: Scalar Field 1: groundedmask
0: CreateListForSaving: Scalar Field 2: distance
0: CreateListForSaving: Scalar Field 3: zs
0: CreateListForSaving: Scalar Field 4: zb
0: CreateListForSaving: Scalar Field 5: bedrock
0: CreateListForSaving: Scalar Field 6: elementsize
0: CreateListForSaving: Scalar Field 7: vx
0: CreateListForSaving: Scalar Field 8: vy
0: ResultOutputSolver: Saving in unstructured VTK XML (.vtu) format
0: VtuOutputSolver: Full filename base is: square_iso_N6/square_iso_N6_EkstroemLGM
0: GenerateSaveMask: Allocating NodePerm of size: 10580
0: GenerateSaveMask: Allocating ActiveElem of size: 21158
0: GenerateSaveMask: Number of active elements 21158 out of 21158
0: GenerateSaveMask: Number of geometry nodes 10580 out of 10580
0: VtuOutputSolver: Setting offset for boundary entities: 100
0: VtuOutputSolver: Writing the vtu file: square_iso_N6/square_iso_N6_EkstroemLGM_t0006.vtu
0: AscBinWriteInit: Initializing buffered ascii/binary writing
0: AscBinWriteInit: Writing in binary
0: AscBinWriteInit: Writing in double precision
0: AscBinWriteInit: Writing to unit number: 58
0: AscBinWriteInit: Size of buffer is: 10580
0: WriteVtuFile: Writing nodal fields
0: WriteVtuFile: Saving variable: groundedmask
0: WriteVtuFile: Saving variable: distance
0: WriteVtuFile: Saving variable: zs
0: WriteVtuFile: Saving variable: zb
0: WriteVtuFile: Saving variable: bedrock
0: WriteVtuFile: Saving variable: elementsize
0: WriteVtuFile: Saving variable: vx
0: WriteVtuFile: Saving variable: vy
0: WriteVtuFile: Number of nodal fields written: 8
0: WriteVtuFile: Writing elemental fields
0: WriteVtuFile: Number of elemental fields written: 0
0: WriteVtuFile: Writing entity IDs for bodies and boundaries
0: WriteVtuFile: Writing coordinates for each used node
0: WriteVtuFile: Writing the elemental connectivity data
0: WriteVtuFile: Writing nodal fields
0: WriteVtuFile: Saving variable: groundedmask
0: WriteVtuFile: Saving variable: distance
0: WriteVtuFile: Saving variable: zs
0: WriteVtuFile: Saving variable: zb
0: WriteVtuFile: Saving variable: bedrock
0: WriteVtuFile: Saving variable: elementsize
0: WriteVtuFile: Saving variable: vx
0: WriteVtuFile: Saving variable: vy
0: WriteVtuFile: Writing elemental fields
0: AscBinWriteFree: Terminating buffered ascii/binary writing
0: WriteVtuFile: Finished writing file
0: VtuOutputSolver: Finished writing vtu file
0: VtuOutputSolver: All done for now
0: ResultOutputSolver: -------------------------------------
0: ResultOutputSolver: Working on mesh: square_iso_N5
0: ResultOutputSolver: Dimension of mesh is: 2
0: ResultOutputSolver: Recreating list for saving
0: CreateListForSaving: Field Variables for Saving
0: CreateListForSaving: Scalar Field 1: groundedmask
0: CreateListForSaving: Scalar Field 2: distance
0: CreateListForSaving: Scalar Field 3: zs
0: CreateListForSaving: Scalar Field 4: zb
0: CreateListForSaving: Scalar Field 5: bedrock
0: CreateListForSaving: Scalar Field 6: elementsize
0: CreateListForSaving: Scalar Field 7: vx
0: CreateListForSaving: Scalar Field 8: vy
0: ResultOutputSolver: Saving in unstructured VTK XML (.vtu) format
0: VtuOutputSolver: Full filename base is: square_iso_N5/square_iso_N5_EkstroemLGM
0: GenerateSaveMask: Allocating NodePerm of size: 10604
0: GenerateSaveMask: Allocating ActiveElem of size: 21206
0: GenerateSaveMask: Number of active elements 21206 out of 21206
0: GenerateSaveMask: Number of geometry nodes 10604 out of 10604
0: VtuOutputSolver: Setting offset for boundary entities: 100
0: VtuOutputSolver: Writing the vtu file: square_iso_N5/square_iso_N5_EkstroemLGM_t0006.vtu
0: AscBinWriteInit: Initializing buffered ascii/binary writing
0: AscBinWriteInit: Writing in binary
0: AscBinWriteInit: Writing in double precision
0: AscBinWriteInit: Writing to unit number: 58
0: AscBinWriteInit: Size of buffer is: 10604
0: WriteVtuFile: Writing nodal fields
0: WriteVtuFile: Saving variable: groundedmask
0: WriteVtuFile: Saving variable: distance
0: WriteVtuFile: Saving variable: zs
0: WriteVtuFile: Saving variable: zb
0: WriteVtuFile: Saving variable: bedrock
0: WriteVtuFile: Saving variable: elementsize
0: WriteVtuFile: Saving variable: vx
0: WriteVtuFile: Saving variable: vy
0: WriteVtuFile: Number of nodal fields written: 8
0: WriteVtuFile: Writing elemental fields
0: WriteVtuFile: Number of elemental fields written: 0
0: WriteVtuFile: Writing entity IDs for bodies and boundaries
0: WriteVtuFile: Writing coordinates for each used node
0: WriteVtuFile: Writing the elemental connectivity data
0: WriteVtuFile: Writing nodal fields
0: WriteVtuFile: Saving variable: groundedmask
0: WriteVtuFile: Saving variable: distance
0: WriteVtuFile: Saving variable: zs
0: WriteVtuFile: Saving variable: zb
0: WriteVtuFile: Saving variable: bedrock
0: WriteVtuFile: Saving variable: elementsize
0: WriteVtuFile: Saving variable: vx
0: WriteVtuFile: Saving variable: vy
0: WriteVtuFile: Writing elemental fields
0: AscBinWriteFree: Terminating buffered ascii/binary writing
0: WriteVtuFile: Finished writing file
0: VtuOutputSolver: Finished writing vtu file
0: VtuOutputSolver: All done for now
0: ResultOutputSolver: -------------------------------------
0: ResultOutputSolver: Working on mesh: square_iso_N4
0: ResultOutputSolver: Skipping inactive mesh: square_iso_N4
0: ResultOutputSolver: Working on mesh: square_iso_N3
0: ResultOutputSolver: Skipping inactive mesh: square_iso_N3
0: ResultOutputSolver: Working on mesh: square_iso_N2
0: ResultOutputSolver: Skipping inactive mesh: square_iso_N2
0: ResultOutputSolver: Working on mesh: square_iso_N1
0: ResultOutputSolver: Skipping inactive mesh: square_iso_N1
0: ResultOutputSolver: Working on mesh: Mesh
0: ResultOutputSolver: Skipping inactive mesh: Mesh
0: Loading user function library: [ResultOutputSolve]...[ResultOutputSolver_post]
0: UpdateDependentObjects: Updating objects depending on primary field in steady state
0: DerivateExportedVariables: Derivating variables, if any!
0: DerivateExportedVariables: Derivating done for variables: 0
0: ListPopNameSpace: No namespace entry to delete
0: ListPopNameSpace: No namespace entry to delete
0: ReloadInputFile: Realoading input file
0: LoadInputFile: Loading input file:
0: ElmerSolver: *** Elmer Solver: ALL DONE ***
0: FreeModel: Freeing meshes
0: ReleaseMesh: Releasing mesh variables
0: ReleaseVariableList: Trying to release variable: groundedmask
0: ReleaseVariableList: Trying to release variable: distance
0: ReleaseVariableList: Trying to release variable: initialise fn_var
0: ReleaseVariableList: Trying to release variable: zs
0: ReleaseVariableList: Trying to release variable: zb
0: ReleaseVariableList: Trying to release variable: bedrock
0: ReleaseVariableList: Trying to release variable: elementsize
0: ReleaseVariableList: Trying to release variable: mmg_var
0: ReleaseVariableList: Trying to release variable: vx
0: ReleaseVariableList: Trying to release variable: vy
0: ReleaseMesh: Releasing mesh nodes
0: ReleaseMesh: Releasing mesh quadrant tree
0: ReleaseMesh: Releasing mesh elements
0: ReleaseMesh: Releasing mesh finished
0: ReleaseMesh: Releasing mesh variables
0: ReleaseVariableList: Trying to release variable: groundedmask
0: ReleaseVariableList: Trying to release variable: distance
0: ReleaseVariableList: Trying to release variable: initialise fn_var
0: ReleaseVariableList: Trying to release variable: zs
0: ReleaseVariableList: Trying to release variable: zb
0: ReleaseVariableList: Trying to release variable: bedrock
0: ReleaseVariableList: Trying to release variable: elementsize
0: ReleaseVariableList: Trying to release variable: mmg_var
0: ReleaseVariableList: Trying to release variable: vx
0: ReleaseVariableList: Trying to release variable: vy
0: ReleaseMesh: Releasing mesh nodes
0: ReleaseMesh: Releasing mesh projector
0: ReleaseMesh: Releasing mesh quadrant tree
0: ReleaseMesh: Releasing mesh elements
0: ReleaseMesh: Releasing mesh finished
0: ReleaseMesh: Releasing mesh variables
0: ReleaseVariableList: Trying to release variable: groundedmask
0: ReleaseVariableList: Trying to release variable: distance
0: ReleaseVariableList: Trying to release variable: initialise fn_var
0: ReleaseVariableList: Trying to release variable: zs
0: ReleaseVariableList: Trying to release variable: zb
0: ReleaseVariableList: Trying to release variable: bedrock
0: ReleaseVariableList: Trying to release variable: elementsize
0: ReleaseVariableList: Trying to release variable: mmg_var
0: ReleaseVariableList: Trying to release variable: vx
0: ReleaseVariableList: Trying to release variable: vy
0: ReleaseMesh: Releasing mesh nodes
0: ReleaseMesh: Releasing mesh projector
0: ReleaseMesh: Releasing mesh quadrant tree
0: ReleaseMesh: Releasing mesh elements
0: ReleaseMesh: Releasing mesh finished
0: ReleaseMesh: Releasing mesh variables
0: ReleaseVariableList: Trying to release variable: groundedmask
0: ReleaseVariableList: Trying to release variable: distance
0: ReleaseVariableList: Trying to release variable: initialise fn_var
0: ReleaseVariableList: Trying to release variable: zs
0: ReleaseVariableList: Trying to release variable: zb
0: ReleaseVariableList: Trying to release variable: bedrock
0: ReleaseVariableList: Trying to release variable: elementsize
0: ReleaseVariableList: Trying to release variable: mmg_var
0: ReleaseVariableList: Trying to release variable: vx
0: ReleaseVariableList: Trying to release variable: vy
0: ReleaseMesh: Releasing mesh nodes
0: ReleaseMesh: Releasing mesh projector
0: ReleaseMesh: Releasing mesh quadrant tree
0: ReleaseMesh: Releasing mesh elements
0: ReleaseMesh: Releasing mesh finished
0: ReleaseMesh: Releasing mesh variables
0: ReleaseVariableList: Trying to release variable: groundedmask
0: ReleaseVariableList: Trying to release variable: distance
0: ReleaseVariableList: Trying to release variable: initialise fn_var
0: ReleaseVariableList: Trying to release variable: zs
0: ReleaseVariableList: Trying to release variable: zb
0: ReleaseVariableList: Trying to release variable: bedrock
0: ReleaseVariableList: Trying to release variable: elementsize
0: ReleaseVariableList: Trying to release variable: mmg_var
0: ReleaseVariableList: Trying to release variable: vx
0: ReleaseVariableList: Trying to release variable: vy
0: ReleaseMesh: Releasing mesh nodes
0: ReleaseMesh: Releasing mesh projector
0: ReleaseMesh: Releasing mesh quadrant tree
0: ReleaseMesh: Releasing mesh elements
0: ReleaseMesh: Releasing mesh finished
0: ReleaseMesh: Releasing mesh variables
0: ReleaseVariableList: Trying to release variable: groundedmask
0: ReleaseVariableList: Trying to release variable: distance
0: ReleaseVariableList: Trying to release variable: initialise fn_var
0: ReleaseVariableList: Trying to release variable: zs
0: ReleaseVariableList: Trying to release variable: zb
0: ReleaseVariableList: Trying to release variable: bedrock
0: ReleaseVariableList: Trying to release variable: elementsize
0: ReleaseVariableList: Trying to release variable: mmg_var
0: ReleaseVariableList: Trying to release variable: vx
0: ReleaseVariableList: Trying to release variable: vy
0: ReleaseMesh: Releasing mesh nodes
0: ReleaseMesh: Releasing mesh projector
0: ReleaseMesh: Releasing mesh quadrant tree
0: ReleaseMesh: Releasing mesh elements
0: ReleaseMesh: Releasing mesh finished
0: ReleaseMesh: Releasing mesh variables
0: ReleaseVariableList: Trying to release variable: groundedmask
0: ReleaseVariableList: Trying to release variable: distance
0: ReleaseVariableList: Trying to release variable: initialise fn_var
0: ReleaseVariableList: Trying to release variable: zs
0: ReleaseVariableList: Trying to release variable: zb
0: ReleaseVariableList: Trying to release variable: bedrock
0: ReleaseVariableList: Trying to release variable: elementsize
0: ReleaseVariableList: Trying to release variable: mmg_var
0: ReleaseVariableList: Trying to release variable: vx
0: ReleaseVariableList: Trying to release variable: vy
0: ReleaseMesh: Releasing mesh nodes
0: ReleaseMesh: Releasing mesh projector
0: ReleaseMesh: Releasing mesh elements
0: ReleaseMesh: Releasing mesh finished
0: FreeModel: Freeing constants list
0: FreeModel: Freeing simulation list
0: FreeModel: Freeing boundary lists
0: FreeModel: Freeing solvers
0: FreeModel: Solver: 1
0: FreeSolver: Free solver matrix
0: FreeSolver: Free solver miscellaneous
0: FreeModel: Solver: 2
0: FreeSolver: Free solver matrix
0: FreeSolver: Free solver miscellaneous
0: FreeModel: Solver: 3
0: FreeSolver: Free solver matrix
0: FreeSolver: Free solver miscellaneous
0: FreeModel: Solver: 4
0: FreeSolver: Free solver matrix
0: FreeSolver: Free solver miscellaneous
0: FreeModel: Solver: 5
0: FreeSolver: Free solver matrix
0: FreeSolver: Free solver miscellaneous
0: FreeModel: Solver: 6
0: FreeSolver: Free solver matrix
0: FreeSolver: Free solver miscellaneous
0: FreeModel: Freeing initial conditions lists
0: FreeModel: Freeing body lists
0: FreeModel: Freeing equations lists
0: FreeModel: Freeing body forces lists
0: ElmerSolver: The end
0: SOLVER TOTAL TIME(CPU,REAL):        16.43       18.69
0: ELMER SOLVER FINISHED AT: 2023/01/05 11:37:07
