Here comes the Nodelist:
l20363
Here comes the partition the job runs in:
compute
#ElmerGrid 2 2 Mesh -partition 10 8 1 -autoclean
#ElmerGrid 2 2 Mesh -metis 80 4  -autoclean
0: ELMER SOLVER (v 9.0) STARTED AT: 2022/09/21 09:38:48
0: ParCommInit:  Initialize #PEs:            1
0: MAIN: 
0: MAIN: =============================================================
0: MAIN: ElmerSolver finite element software, Welcome!
0: MAIN: This program is free software licensed under (L)GPL
0: MAIN: Copyright 1st April 1995 - , CSC - IT Center for Science Ltd.
0: MAIN: Webpage http://www.csc.fi/elmer, Email elmeradm@csc.fi
0: MAIN: Version: 9.0 (Rev: unknown, Compiled: 2022-06-01)
0: MAIN:  Running one task without MPI parallelization.
0: MAIN:  Running with just one thread per task.
0: MAIN:  MUMPS library linked in.
0: MAIN:  Intel MKL linked in.
0: MAIN: =============================================================
0: LoadInputFile: Trying to read "Run Control" section only
0: MAIN: 
0: MAIN: 
0: MAIN: -------------------------------------
0: MAIN: Reading Model: Remesh.sif
0: LoadInputFile: Scanning input file: Remesh.sif
0: LoadInputFile: Scanning only size info
0: LoadInputFile: First time visiting
0: LoadInputFile: Reading base load of sif file
0: LoadInputFile: Loading input file: Remesh.sif
0: LoadInputFile: Reading base load of sif file
0: CheckKeyword:  Unlisted keyword: [alpha] in section: [constants]
0: CheckKeyword:  Unlisted keyword: [g] in section: [constants]
0: CheckKeyword:  Unlisted keyword: [a] in section: [constants]
0: CheckKeyword:  Unlisted keyword: [rho] in section: [constants]
0: CheckKeyword:  Unlisted keyword: [distance] in section: [body force 1]
0: CheckKeyword:  Unlisted keyword: [distance condition] in section: [body force 1]
0: CheckKeyword:  Unlisted keyword: [elementsize] in section: [body force 1]
0: CheckKeyword:  Unlisted keyword: [x dim name] in section: [solver 1]
0: CheckKeyword:  Unlisted keyword: [y dim name] in section: [solver 1]
0: CheckKeyword:  Unlisted keyword: [x var name] in section: [solver 1]
0: CheckKeyword:  Unlisted keyword: [y var name] in section: [solver 1]
0: CheckKeyword:  Unlisted keyword: [x epsilon] in section: [solver 1]
0: CheckKeyword:  Unlisted keyword: [y epsilon] in section: [solver 1]
0: CheckKeyword:  Unlisted keyword: [time epsilon] in section: [solver 1]
0: CheckKeyword:  Unlisted keyword: [interpolation bias] in section: [solver 1]
0: CheckKeyword:  Unlisted keyword: [interpolation multiplier] in section: [solver 1]
0: CheckKeyword:  Unlisted keyword: [is time counter] in section: [solver 1]
0: CheckKeyword:  Unlisted keyword: [enable scaling] in section: [solver 1]
0: CheckKeyword:  Unlisted keyword: [h scale] in section: [solver 3]
0: CheckKeyword:  Unlisted keyword: [dummy distance computation] in section: [solver 3]
0: CheckKeyword:  Unlisted keyword: [metric variable name] in section: [solver 5]
0: CheckKeyword:  Unlisted keyword: [hausd] in section: [solver 5]
0: CheckKeyword:  Unlisted keyword: [hgrad] in section: [solver 5]
0: LoadInputFile: Number of BCs: 4
0: LoadInputFile: Number of Body Forces: 1
0: LoadInputFile: Number of Initial Conditions: 1
0: WARNING:: LoadInputFile: Entry missing for: Initial Condition 1
0: LoadInputFile: Number of Materials: 0
0: LoadInputFile: Number of Equations: 1
0: LoadInputFile: Number of Solvers: 6
0: LoadInputFile: Number of Bodies: 1
0: ListTagKeywords: Setting weight for keywords!
0: ListTagKeywords: No parameters width suffix: normalize by area
0: ListTagKeywords: Setting weight for keywords!
0: ListTagKeywords: No parameters width suffix: normalize by volume
0: Loading user function library: [GridDataReader]...[GridDataReader_Init0]
0: Loading user function library: [src/GroundedMaskSolver]...[GroundedMaskSolver_Init0]
0: Loading user function library: [src/DistanceSolveRD]...[DistanceSolver1_Init0]
0: Loading user function library: [ElmerIceSolvers]...[UpdateExport_Init0]
0: Loading user function library: [ElmerIce_MeshAdapt2D]...[MMG2DSolver_Init0]
0: Loading user function library: [ResultOutputSolve]...[ResultOutputSolver_Init0]
0: LoadMesh: Loading serial mesh!
0: ElmerAsciiMesh: Performing step: 1
0: ElmerAsciiMesh: Base mesh name: ./Mesh
0: ReadHeaderFile: Reading header info from file: ./Mesh/mesh.header
0: InitializeMesh: Number of nodes in mesh: 10580
0: InitializeMesh: Number of bulk elements in mesh: 20995
0: InitializeMesh: Number of boundary elements in mesh: 163
0: InitializeMesh: Initial number of max element nodes: 3
0: ElmerAsciiMesh: Performing step: 2
0: ReadNodesFile: Reading nodes from file: ./Mesh/mesh.nodes
0: SetMeshDimension: Dimension of mesh is: 2
0: SetMeshDimension: Max dimension of mesh is: 2
0: ElmerAsciiMesh: Performing step: 3
0: ReadElementsFile: Reading bulk elements from file: ./Mesh/mesh.elements
0: ElmerAsciiMesh: Performing step: 4
0: ReadBoundaryFile: Reading boundary elements from file: ./Mesh/mesh.boundary
0: PermuteNodeNumbering: Performing node mapping
0: MapBodiesAndBCs: Skipping remapping of bodies
0: MapBodiesAndBCs: Remapping boundaries
0: MapBodiesAndBCs: Minimum initial boundary index: 1
0: MapBodiesAndBCs: Maximum initial boundary index: 4
0: ElmerAsciiMesh: Performing step: 5
0: ElmerAsciiMesh: Performing step: 6
0: LoadMesh: Loading mesh done
0: LoadMesh: Preparing mesh done
0: LoadMesh: Elapsed REAL time:     0.0577 (s)
0: MeshStabParams: Computing stabilization parameters
0: MeshStabParams: Elapsed REAL time:     0.0074 (s)
0: CompleteModelKeywords: Completing keywords for mortars and mechanics!
0: MAIN: -------------------------------------
0: AddMeshCoordinates: Setting mesh coordinates and time
0: VariableAdd: Adding variable > Coordinate 1 < of size 10580
0: VariableAdd: Adding variable > Coordinate 2 < of size 10580
0: VariableAdd: Adding variable > Coordinate 3 < of size 10580
0: AddSolvers: Setting up 6 solvers
0: AddSolvers: Setting up solver 1: reader
0: AddEquationBasics: Using procedure: GridDataReader GridDataReader
0: AddEquationBasics: Setting up solver: reader
0: Loading user function library: [GridDataReader]...[GridDataReader_Init]
0: AddEquationBasics: Checking for _init solver
0: Loading user function library: [GridDataReader]...[GridDataReader_bulk]
0: AddEquationBasics: Checking for _bulk solver
0: Loading user function library: [GridDataReader]...[GridDataReader]
0: AddEquationBasics: Creating null variable with no name
0: AddSolvers: Setting up solver 2: groundedmask
0: AddEquationBasics: Using procedure: src/GroundedMaskSolver GroundedMaskSolver
0: AddEquationBasics: Setting up solver: groundedmask
0: Loading user function library: [src/GroundedMaskSolver]...[GroundedMaskSolver_Init]
0: AddEquationBasics: Checking for _init solver
0: Loading user function library: [src/GroundedMaskSolver]...[GroundedMaskSolver_bulk]
0: AddEquationBasics: Checking for _bulk solver
0: Loading user function library: [src/GroundedMaskSolver]...[GroundedMaskSolver]
0: AddEquationBasics: Treating variable string: groundedmask
0: AddEquationBasics: Creating standard variable: groundedmask
0: AddEquationBasics: Computing size of permutation vector
0: AddEquationBasics: Maximum size of permutation vector is: 10580
0: AddEquationBasics: Creating solver matrix topology
0: CreateMatrix: Creating initial permutation
0: CreateMatrix: Creating inverse of initial order of size: 10580
0: CreateMatrix: Creating list matrix for equation: groundedmask
0: MakeListMatrix: Creating list matrix
0: OptimizeBandwidth: ---------------------------------------------------------
0: OptimizeBandwidth: Computing matrix structure for: groundedmask...done.
0: OptimizeBandwidth: Half bandwidth without optimization: 10430
0: OptimizeBandwidth: 
0: OptimizeBandwidth: Bandwidth Optimization ...done.
0: OptimizeBandwidth: Half bandwidth after optimization: 236
0: OptimizeBandwidth: ---------------------------------------------------------
0: CreateMatrix: Initializing list matrix for equation
0: CRS_CreateMatrix: Creating CRS Matrix of size: 10580
0: CRS_CreateMatrix: Creating CRS Matrix with nofs: 73728
0: CreateMatrix: Matrix created
0: AddEquationBasics: Number of rows in CRS matrix: 10580
0: AddEquationBasics: Creating solver variable
0: VariableAdd: Adding variable > groundedmask < of size 10580
0: AddSolvers: Setting up solver 3: solvedistance
0: AddEquationBasics: Using procedure: src/DistanceSolveRD DistanceSolver1
0: AddEquationBasics: Setting up solver: solvedistance
0: Loading user function library: [src/DistanceSolveRD]...[DistanceSolver1_Init]
0: AddEquationBasics: Checking for _init solver
0: Loading user function library: [src/DistanceSolveRD]...[DistanceSolver1_bulk]
0: AddEquationBasics: Checking for _bulk solver
0: Loading user function library: [src/DistanceSolveRD]...[DistanceSolver1]
0: AddEquationBasics: Treating variable string: distance
0: AddEquationBasics: Creating standard variable: distance
0: AddEquationBasics: Computing size of permutation vector
0: AddEquationBasics: Maximum size of permutation vector is: 10580
0: AddEquationBasics: Creating solver matrix topology
0: CreateMatrix: Creating initial permutation
0: CreateMatrix: Creating inverse of initial order of size: 10580
0: CreateMatrix: Creating list matrix for equation: solvedistance
0: MakeListMatrix: Creating list matrix
0: OptimizeBandwidth: ---------------------------------------------------------
0: OptimizeBandwidth: Computing matrix structure for: solvedistance...done.
0: OptimizeBandwidth: Half bandwidth without optimization: 10430
0: OptimizeBandwidth: 
0: OptimizeBandwidth: Bandwidth Optimization ...done.
0: OptimizeBandwidth: Half bandwidth after optimization: 236
0: OptimizeBandwidth: ---------------------------------------------------------
0: CreateMatrix: Initializing list matrix for equation
0: CRS_CreateMatrix: Creating CRS Matrix of size: 10580
0: CRS_CreateMatrix: Creating CRS Matrix with nofs: 73728
0: CreateMatrix: Matrix created
0: AddEquationBasics: Number of rows in CRS matrix: 10580
0: AddEquationBasics: Creating solver variable
0: VariableAdd: Adding variable > distance < of size 10580
0: AddSolvers: Setting up solver 4: initialise fn
0: AddEquationBasics: Using procedure: ElmerIceSolvers UpdateExport
0: AddEquationBasics: Setting up solver: initialise fn
0: Loading user function library: [ElmerIceSolvers]...[UpdateExport_Init]
0: AddEquationBasics: Checking for _init solver
0: Loading user function library: [ElmerIceSolvers]...[UpdateExport_bulk]
0: AddEquationBasics: Checking for _bulk solver
0: Loading user function library: [ElmerIceSolvers]...[UpdateExport]
0: AddEquationBasics: Treating variable string: -nooutput initialise fn_var
0: AddEquationBasics: Creating standard variable: initialise fn_var
0: AddEquationBasics: Computing size of permutation vector
0: AddEquationBasics: Maximum size of permutation vector is: 10580
0: AddEquationBasics: Creating solver matrix topology
0: CreateMatrix: Creating initial permutation
0: CreateMatrix: Creating list matrix for equation: initialise fn
0: MakeListMatrix: Creating list matrix
0: OptimizeBandwidth: ---------------------------------------------------------
0: OptimizeBandwidth: Computing matrix structure for: initialise fn...done.
0: OptimizeBandwidth: Half bandwidth without optimization: 10430
0: OptimizeBandwidth: ---------------------------------------------------------
0: CreateMatrix: Initializing list matrix for equation
0: CRS_CreateMatrix: Creating CRS Matrix of size: 10580
0: CRS_CreateMatrix: Creating CRS Matrix with nofs: 73728
0: CreateMatrix: Matrix created
0: AddEquationBasics: Number of rows in CRS matrix: 10580
0: AddEquationBasics: Creating solver variable
0: VariableAdd: Adding variable > initialise fn_var < of size 10580
0: AddEquationBasics: Creating exported variable: zs
0: AddEquationBasics: Creating exported variable: zs
0: VariableAdd: Adding variable > zs < of size 10580
0: AddEquationBasics: Succesfully created variable: zs
0: AddEquationBasics: Creating exported variable: zb
0: AddEquationBasics: Creating exported variable: zb
0: VariableAdd: Adding variable > zb < of size 10580
0: AddEquationBasics: Succesfully created variable: zb
0: AddEquationBasics: Creating exported variable: bedrock
0: AddEquationBasics: Creating exported variable: bedrock
0: VariableAdd: Adding variable > bedrock < of size 10580
0: AddEquationBasics: Succesfully created variable: bedrock
0: AddEquationBasics: Creating exported variable: distance
0: AddEquationBasics: Creating exported variable: elementsize
0: AddEquationBasics: Creating exported variable: elementsize
0: VariableAdd: Adding variable > elementsize < of size 10580
0: AddEquationBasics: Succesfully created variable: elementsize
0: AddSolvers: Setting up solver 5: mmg
0: AddEquationBasics: Using procedure: ElmerIce_MeshAdapt2D MMG2DSolver
0: AddEquationBasics: Setting up solver: mmg
0: Loading user function library: [ElmerIce_MeshAdapt2D]...[MMG2DSolver_Init]
0: AddEquationBasics: Checking for _init solver
0: Loading user function library: [ElmerIce_MeshAdapt2D]...[MMG2DSolver_bulk]
0: AddEquationBasics: Checking for _bulk solver
0: Loading user function library: [ElmerIce_MeshAdapt2D]...[MMG2DSolver]
0: AddEquationBasics: Treating variable string: -nooutput mmg_var
0: AddEquationBasics: Creating standard variable: mmg_var
0: AddEquationBasics: Computing size of permutation vector
0: AddEquationBasics: Maximum size of permutation vector is: 10580
0: AddEquationBasics: Creating solver matrix topology
0: CreateMatrix: Creating initial permutation
0: CreateMatrix: Creating list matrix for equation: mmg
0: MakeListMatrix: Creating list matrix
0: OptimizeBandwidth: ---------------------------------------------------------
0: OptimizeBandwidth: Computing matrix structure for: mmg...done.
0: OptimizeBandwidth: Half bandwidth without optimization: 10430
0: OptimizeBandwidth: ---------------------------------------------------------
0: CreateMatrix: Initializing list matrix for equation
0: CRS_CreateMatrix: Creating CRS Matrix of size: 10580
0: CRS_CreateMatrix: Creating CRS Matrix with nofs: 73728
0: CreateMatrix: Matrix created
0: AddEquationBasics: Number of rows in CRS matrix: 10580
0: AddEquationBasics: Creating solver variable
0: VariableAdd: Adding variable > mmg_var < of size 10580
0: AddSolvers: Setting up solver 6: result output
0: AddEquationBasics: Using procedure: ResultOutputSolve ResultOutputSolver
0: AddEquationBasics: Setting up solver: result output
0: Loading user function library: [ResultOutputSolve]...[ResultOutputSolver_Init]
0: AddEquationBasics: Checking for _init solver
0: Loading user function library: [ResultOutputSolve]...[ResultOutputSolver_bulk]
0: AddEquationBasics: Checking for _bulk solver
0: Loading user function library: [ResultOutputSolve]...[ResultOutputSolver]
0: AddEquationBasics: Creating null variable with no name
0: AddSolvers: Setting up solvers done
0: AddTimeEtc: Setting time and other global variables
0: VariableAdd: Adding variable > Time < of size 1
0: VariableAdd: Adding variable > Timestep < of size 1
0: VariableAdd: Adding variable > Timestep size < of size 1
0: VariableAdd: Adding variable > Timestep interval < of size 1
0: VariableAdd: Adding variable > nonlin iter < of size 1
0: VariableAdd: Adding variable > coupled iter < of size 1
0: VariableAdd: Adding variable > Partition < of size 1
0: ElmerSolver: Random seed initialized to: 314159265
0: SetInitialConditions: Setting up initial conditions (if any)
0:  InitCond mesh:Mesh           2       10580
0: ElmerSolver: Number of timesteps to be saved: 6
0: ListTagCount: Counting tags for keyword normalization!
0: ListTagCount: Found number of normalized keywords: 0
0: SetActiveElementsTable: Creating active element table for: reader
0: SetActiveElementsTable: Number of active elements found : 20995
0: SingleSolver: Attempting to call solver
0: SingleSolver: Solver Equation string is: reader
0: GridDataReader: -----------------------------------------
0: GridDataReader: Obtaining field(s) from grid NetCDF format
0: GridDataReader: Keyword > Z Epsilon < not given, setting equal to > X Epsilon <
0: WARNING:: ListFind: 
0: WARNING:: ListFind:  Requested property: [Read full array], not found
0: WARNING:: ListFind: 
0: GridDataReader: Found 1 dimensional coordinate variable > x < : 1
0: GridDataReader: Found dimension > x < with id 1 and size 156
0: GridDataReader: Grid parameter of dimension > x < is    5.000E+02
0: GridDataReader: Range of dimension > x < is [   9.205E+05   9.980E+05]
0: GridDataReader: Found 1 dimensional coordinate variable > y < : 1
0: GridDataReader: Found dimension > y < with id 2 and size 173
0: GridDataReader: Grid parameter of dimension > y < is   -5.000E+02
0: GridDataReader: Range of dimension > y < is [   1.966E+06   1.880E+06]
0: GridDataReader: No time given, using 1st step
0: GridDataReader: Performing interpolation for variable: bedrock
0: GridDataReader: Number of proper mappings  : 10580
0: GridDataReader: Performing interpolation for variable: zs
0: GridDataReader: Number of proper mappings  : 10580
0: GridDataReader: Performing interpolation for variable: zb
0: GridDataReader: Number of proper mappings  : 10580
0: GridDataReader: Performing interpolation for variable: vx
0: VariableAddVector: Adding variable > vx < with 1 components
0: VariableAddVector: Allocating field of size: 10580
0: VariableAdd: Adding variable > vx < of size 10580
0: GridDataReader: Number of proper mappings  : 10580
0: GridDataReader: Performing interpolation for variable: vy
0: VariableAddVector: Adding variable > vy < with 1 components
0: VariableAddVector: Allocating field of size: 10580
0: VariableAdd: Adding variable > vy < of size 10580
0: GridDataReader: Number of proper mappings  : 10580
0: GridDataReader: Elapsed REAL time:     0.5394 (s)
0: GridDataReader: All done
0: GridDataReader: -----------------------------------------
0: Loading user function library: [GridDataReader]...[GridDataReader_post]
0: UpdateDependentObjects: Updating objects depending on primary field in steady state
0: DerivateExportedVariables: Derivating variables, if any!
0: DerivateExportedVariables: Derivating done for variables: 0
0: SetActiveElementsTable: Creating active element table for: groundedmask
0: SetActiveElementsTable: Number of active elements found : 20995
0: SingleSolver: Attempting to call solver
0: SingleSolver: Solver Equation string is: groundedmask
0:  Reading Zb..
0:  Done Zb.
0:  Reading bedrock..
0:  Done Bedrock.
0:  Writing Element%NodeIndexes(i)        3462
0:  Writing Element%NodeIndexes(i)        1633
0:  Writing Element%NodeIndexes(i)        3461
0:  Writing Element%NodeIndexes(i)        3464
0:  Writing Element%NodeIndexes(i)        1631
0:  Writing Element%NodeIndexes(i)        3463
0:  Writing Element%NodeIndexes(i)        3466
0:  Writing Element%NodeIndexes(i)        3465
0:  Writing Element%NodeIndexes(i)        1636
0:  Writing Element%NodeIndexes(i)        1514
0:  Writing Element%NodeIndexes(i)         713
0:  Writing Element%NodeIndexes(i)        1116
0:  Writing Element%NodeIndexes(i)        3468
0:  Writing Element%NodeIndexes(i)        3467
0:  Writing Element%NodeIndexes(i)        1636
0:  Writing Element%NodeIndexes(i)        1116
0:  Writing Element%NodeIndexes(i)         713
0:  Writing Element%NodeIndexes(i)         173
0:  Writing Element%NodeIndexes(i)         661
0:  Writing Element%NodeIndexes(i)        1611
0:  Writing Element%NodeIndexes(i)         290
0:  Writing Element%NodeIndexes(i)         662
0:  Writing Element%NodeIndexes(i)         291
0:  Writing Element%NodeIndexes(i)        1610
0:  Writing Element%NodeIndexes(i)        1611
0:  Writing Element%NodeIndexes(i)         626
0:  Writing Element%NodeIndexes(i)         290
0:  Writing Element%NodeIndexes(i)        1610
0:  Writing Element%NodeIndexes(i)         291
0:  Writing Element%NodeIndexes(i)         625
0:  Writing Element%NodeIndexes(i)        1642
0:  Writing Element%NodeIndexes(i)        1643
0:  Writing Element%NodeIndexes(i)        4144
0:  Writing Element%NodeIndexes(i)        1390
0:  Writing Element%NodeIndexes(i)         616
0:  Writing Element%NodeIndexes(i)        1145
0:  Writing Element%NodeIndexes(i)        1264
0:  Writing Element%NodeIndexes(i)         818
0:  Writing Element%NodeIndexes(i)         625
0:  Writing Element%NodeIndexes(i)        1265
0:  Writing Element%NodeIndexes(i)         626
0:  Writing Element%NodeIndexes(i)         817
0:  Writing Element%NodeIndexes(i)         291
0:  Writing Element%NodeIndexes(i)        1264
0:  Writing Element%NodeIndexes(i)         625
0:  Writing Element%NodeIndexes(i)         290
0:  Writing Element%NodeIndexes(i)         626
0:  Writing Element%NodeIndexes(i)        1265
0:  Writing Element%NodeIndexes(i)         233
0:  Writing Element%NodeIndexes(i)         616
0:  Writing Element%NodeIndexes(i)        1390
0:  Writing Element%NodeIndexes(i)         154
0:  Writing Element%NodeIndexes(i)        1100
0:  Writing Element%NodeIndexes(i)        1245
0:  Writing Element%NodeIndexes(i)        3471
0:  Writing Element%NodeIndexes(i)        3470
0:  Writing Element%NodeIndexes(i)        1645
0:  Writing Element%NodeIndexes(i)        1420
0:  Writing Element%NodeIndexes(i)         627
0:  Writing Element%NodeIndexes(i)          76
0:  Writing Element%NodeIndexes(i)        9214
0:  Writing Element%NodeIndexes(i)         962
0:  Writing Element%NodeIndexes(i)        9743
0:  Writing Element%NodeIndexes(i)         237
0:  Writing Element%NodeIndexes(i)         522
0:  Writing Element%NodeIndexes(i)         972
0:  Writing Element%NodeIndexes(i)         364
0:  Writing Element%NodeIndexes(i)         972
0:  Writing Element%NodeIndexes(i)         522
0:  Writing Element%NodeIndexes(i)        3473
0:  Writing Element%NodeIndexes(i)        1649
0:  Writing Element%NodeIndexes(i)        3472
0:  Writing Element%NodeIndexes(i)         135
0:  Writing Element%NodeIndexes(i)         548
0:  Writing Element%NodeIndexes(i)        1113
0:  Writing Element%NodeIndexes(i)          51
0:  Writing Element%NodeIndexes(i)        1114
0:  Writing Element%NodeIndexes(i)         549
0:  Writing Element%NodeIndexes(i)         202
0:  Writing Element%NodeIndexes(i)         795
0:  Writing Element%NodeIndexes(i)         504
0:  Writing Element%NodeIndexes(i)        5403
0:  Writing Element%NodeIndexes(i)        5390
0:  Writing Element%NodeIndexes(i)        3474
0:  Writing Element%NodeIndexes(i)        3475
0:  Writing Element%NodeIndexes(i)        1655
0:  Writing Element%NodeIndexes(i)        5391
0:  Writing Element%NodeIndexes(i)        3477
0:  Writing Element%NodeIndexes(i)        3476
0:  Writing Element%NodeIndexes(i)        1656
0:  Writing Element%NodeIndexes(i)         615
0:  Writing Element%NodeIndexes(i)        1237
0:  Writing Element%NodeIndexes(i)         995
0:  Writing Element%NodeIndexes(i)         318
0:  Writing Element%NodeIndexes(i)         559
0:  Writing Element%NodeIndexes(i)         822
0:  Writing Element%NodeIndexes(i)        1402
0:  Writing Element%NodeIndexes(i)         336
0:  Writing Element%NodeIndexes(i)         875
0:  Writing Element%NodeIndexes(i)         542
0:  Writing Element%NodeIndexes(i)        1177
0:  Writing Element%NodeIndexes(i)         774
0:  Writing Element%NodeIndexes(i)         541
0:  Writing Element%NodeIndexes(i)         775
0:  Writing Element%NodeIndexes(i)        1178
0:  Writing Element%NodeIndexes(i)        3479
0:  Writing Element%NodeIndexes(i)        1661
0:  Writing Element%NodeIndexes(i)        3478
0:  Writing Element%NodeIndexes(i)         429
0:  Writing Element%NodeIndexes(i)        1206
0:  Writing Element%NodeIndexes(i)         554
0:  Writing Element%NodeIndexes(i)        5392
0:  Writing Element%NodeIndexes(i)        1664
0:  Writing Element%NodeIndexes(i)        4162
0:  Writing Element%NodeIndexes(i)         330
0:  Writing Element%NodeIndexes(i)         709
0:  Writing Element%NodeIndexes(i)        1087
0:  Writing Element%NodeIndexes(i)        3039
0:  Writing Element%NodeIndexes(i)        5366
0:  Writing Element%NodeIndexes(i)        1666
0:  Writing Element%NodeIndexes(i)         222
0:  Writing Element%NodeIndexes(i)         838
0:  Writing Element%NodeIndexes(i)         952
0:  Writing Element%NodeIndexes(i)         484
0:  Writing Element%NodeIndexes(i)         952
0:  Writing Element%NodeIndexes(i)         838
0:  Writing Element%NodeIndexes(i)         333
0:  Writing Element%NodeIndexes(i)         509
0:  Writing Element%NodeIndexes(i)        1520
0:  Writing Element%NodeIndexes(i)        1343
0:  Writing Element%NodeIndexes(i)        1614
0:  Writing Element%NodeIndexes(i)         789
0:  Writing Element%NodeIndexes(i)        3482
0:  Writing Element%NodeIndexes(i)        1669
0:  Writing Element%NodeIndexes(i)        3481
0:  Writing Element%NodeIndexes(i)         281
0:  Writing Element%NodeIndexes(i)         936
0:  Writing Element%NodeIndexes(i)         533
0:  Writing Element%NodeIndexes(i)        2789
0:  Writing Element%NodeIndexes(i)        9786
0:  Writing Element%NodeIndexes(i)       10213
0:  Writing Element%NodeIndexes(i)        1671
0:  Writing Element%NodeIndexes(i)         552
0:  Writing Element%NodeIndexes(i)        9979
0:  Writing Element%NodeIndexes(i)         330
0:  Writing Element%NodeIndexes(i)        1087
0:  Writing Element%NodeIndexes(i)         782
0:  Writing Element%NodeIndexes(i)         310
0:  Writing Element%NodeIndexes(i)         774
0:  Writing Element%NodeIndexes(i)        1177
0:  Writing Element%NodeIndexes(i)         311
0:  Writing Element%NodeIndexes(i)        1178
0:  Writing Element%NodeIndexes(i)         775
0:  Writing Element%NodeIndexes(i)         243
0:  Writing Element%NodeIndexes(i)        1048
0:  Writing Element%NodeIndexes(i)         535
0:  Writing Element%NodeIndexes(i)         160
0:  Writing Element%NodeIndexes(i)         775
0:  Writing Element%NodeIndexes(i)         541
0:  Writing Element%NodeIndexes(i)         159
0:  Writing Element%NodeIndexes(i)         542
0:  Writing Element%NodeIndexes(i)         774
0:  Writing Element%NodeIndexes(i)         281
0:  Writing Element%NodeIndexes(i)         533
0:  Writing Element%NodeIndexes(i)         728
0:  Writing Element%NodeIndexes(i)         280
0:  Writing Element%NodeIndexes(i)         729
0:  Writing Element%NodeIndexes(i)         532
0:  Writing Element%NodeIndexes(i)         605
0:  Writing Element%NodeIndexes(i)        3485
0:  Writing Element%NodeIndexes(i)        3484
0:  Writing Element%NodeIndexes(i)        1337
0:  Writing Element%NodeIndexes(i)        3488
0:  Writing Element%NodeIndexes(i)        3487
0:  Writing Element%NodeIndexes(i)         358
0:  Writing Element%NodeIndexes(i)        1331
0:  Writing Element%NodeIndexes(i)         528
0:  Writing Element%NodeIndexes(i)         962
0:  Writing Element%NodeIndexes(i)        9214
0:  Writing Element%NodeIndexes(i)        9696
0:  Writing Element%NodeIndexes(i)        3489
0:  Writing Element%NodeIndexes(i)        3236
0:  Writing Element%NodeIndexes(i)        9905
0:  Writing Element%NodeIndexes(i)         286
0:  Writing Element%NodeIndexes(i)         604
0:  Writing Element%NodeIndexes(i)         777
0:  Writing Element%NodeIndexes(i)         290
0:  Writing Element%NodeIndexes(i)         703
0:  Writing Element%NodeIndexes(i)        1036
0:  Writing Element%NodeIndexes(i)        1264
0:  Writing Element%NodeIndexes(i)        1037
0:  Writing Element%NodeIndexes(i)         702
0:  Writing Element%NodeIndexes(i)         324
0:  Writing Element%NodeIndexes(i)        1315
0:  Writing Element%NodeIndexes(i)         872
0:  Writing Element%NodeIndexes(i)         323
0:  Writing Element%NodeIndexes(i)         871
0:  Writing Element%NodeIndexes(i)         566
0:  Writing Element%NodeIndexes(i)         238
0:  Writing Element%NodeIndexes(i)         815
0:  Writing Element%NodeIndexes(i)         988
0:  Writing Element%NodeIndexes(i)        5393
0:  Writing Element%NodeIndexes(i)        3490
0:  Writing Element%NodeIndexes(i)        7756
0:  Writing Element%NodeIndexes(i)         416
0:  Writing Element%NodeIndexes(i)         832
0:  Writing Element%NodeIndexes(i)         887
0:  Writing Element%NodeIndexes(i)        5394
0:  Writing Element%NodeIndexes(i)        3491
0:  Writing Element%NodeIndexes(i)        1685
0:  Writing Element%NodeIndexes(i)        9857
0:  Writing Element%NodeIndexes(i)       10453
0:  Writing Element%NodeIndexes(i)        1324
0:  Writing Element%NodeIndexes(i)         388
0:  Writing Element%NodeIndexes(i)        3494
0:  Writing Element%NodeIndexes(i)        3493
0:  Writing Element%NodeIndexes(i)        1554
0:  Writing Element%NodeIndexes(i)         995
0:  Writing Element%NodeIndexes(i)        1237
0:  Writing Element%NodeIndexes(i)        3496
0:  Writing Element%NodeIndexes(i)        3495
0:  Writing Element%NodeIndexes(i)        8144
0:  Writing Element%NodeIndexes(i)        3498
0:  Writing Element%NodeIndexes(i)        3497
0:  Writing Element%NodeIndexes(i)        1647
0:  Writing Element%NodeIndexes(i)        3500
0:  Writing Element%NodeIndexes(i)        1695
0:  Writing Element%NodeIndexes(i)        3499
0:  Writing Element%NodeIndexes(i)        1173
0:  Writing Element%NodeIndexes(i)         331
0:  Writing Element%NodeIndexes(i)         861
0:  Writing Element%NodeIndexes(i)         215
0:  Writing Element%NodeIndexes(i)        1168
0:  Writing Element%NodeIndexes(i)         747
0:  Writing Element%NodeIndexes(i)         237
0:  Writing Element%NodeIndexes(i)         979
0:  Writing Element%NodeIndexes(i)         522
0:  Writing Element%NodeIndexes(i)        3808
0:  Writing Element%NodeIndexes(i)        5395
0:  Writing Element%NodeIndexes(i)        1698
0:  Writing Element%NodeIndexes(i)        9464
0:  Writing Element%NodeIndexes(i)        3502
0:  Writing Element%NodeIndexes(i)        3491
0:  Writing Element%NodeIndexes(i)         536
0:  Writing Element%NodeIndexes(i)        1173
0:  Writing Element%NodeIndexes(i)         861
0:  Writing Element%NodeIndexes(i)         290
0:  Writing Element%NodeIndexes(i)        1036
0:  Writing Element%NodeIndexes(i)         894
0:  Writing Element%NodeIndexes(i)         291
0:  Writing Element%NodeIndexes(i)         517
0:  Writing Element%NodeIndexes(i)        1037
0:  Writing Element%NodeIndexes(i)         202
0:  Writing Element%NodeIndexes(i)         504
0:  Writing Element%NodeIndexes(i)        1042
0:  Writing Element%NodeIndexes(i)       10459
0:  Writing Element%NodeIndexes(i)         810
0:  Writing Element%NodeIndexes(i)        9777
0:  Writing Element%NodeIndexes(i)         294
0:  Writing Element%NodeIndexes(i)        3505
0:  Writing Element%NodeIndexes(i)        3504
0:  Writing Element%NodeIndexes(i)         196
0:  Writing Element%NodeIndexes(i)        5396
0:  Writing Element%NodeIndexes(i)        5508
0:  Writing Element%NodeIndexes(i)         569
0:  Writing Element%NodeIndexes(i)        8947
0:  Writing Element%NodeIndexes(i)        8905
0:  Writing Element%NodeIndexes(i)        1394
0:  Writing Element%NodeIndexes(i)        5398
0:  Writing Element%NodeIndexes(i)        8364
0:  Writing Element%NodeIndexes(i)         154
0:  Writing Element%NodeIndexes(i)        1245
0:  Writing Element%NodeIndexes(i)         488
0:  Writing Element%NodeIndexes(i)         356
0:  Writing Element%NodeIndexes(i)        1485
0:  Writing Element%NodeIndexes(i)         508
0:  Writing Element%NodeIndexes(i)        1108
0:  Writing Element%NodeIndexes(i)         611
0:  Writing Element%NodeIndexes(i)         484
0:  Writing Element%NodeIndexes(i)         415
0:  Writing Element%NodeIndexes(i)         893
0:  Writing Element%NodeIndexes(i)         831
0:  Writing Element%NodeIndexes(i)        3511
0:  Writing Element%NodeIndexes(i)        3510
0:  Writing Element%NodeIndexes(i)        1718
0:  Writing Element%NodeIndexes(i)        1721
0:  Writing Element%NodeIndexes(i)        3512
0:  Writing Element%NodeIndexes(i)        7764
0:  Writing Element%NodeIndexes(i)        3514
0:  Writing Element%NodeIndexes(i)        1724
0:  Writing Element%NodeIndexes(i)        3513
0:  Writing Element%NodeIndexes(i)        5399
0:  Writing Element%NodeIndexes(i)        3517
0:  Writing Element%NodeIndexes(i)        3516
0:  Writing Element%NodeIndexes(i)         484
0:  Writing Element%NodeIndexes(i)         830
0:  Writing Element%NodeIndexes(i)        1108
0:  Writing Element%NodeIndexes(i)         554
0:  Writing Element%NodeIndexes(i)        1206
0:  Writing Element%NodeIndexes(i)        1318
0:  Writing Element%NodeIndexes(i)        3519
0:  Writing Element%NodeIndexes(i)        1730
0:  Writing Element%NodeIndexes(i)        3518
0:  Writing Element%NodeIndexes(i)         192
0:  Writing Element%NodeIndexes(i)         954
0:  Writing Element%NodeIndexes(i)         706
0:  Writing Element%NodeIndexes(i)         193
0:  Writing Element%NodeIndexes(i)         707
0:  Writing Element%NodeIndexes(i)         955
0:  Writing Element%NodeIndexes(i)         600
0:  Writing Element%NodeIndexes(i)        1402
0:  Writing Element%NodeIndexes(i)         875
0:  Writing Element%NodeIndexes(i)         280
0:  Writing Element%NodeIndexes(i)         532
0:  Writing Element%NodeIndexes(i)         762
0:  Writing Element%NodeIndexes(i)       10332
0:  Writing Element%NodeIndexes(i)        5879
0:  Writing Element%NodeIndexes(i)       10508
0:  Writing Element%NodeIndexes(i)         216
0:  Writing Element%NodeIndexes(i)        1398
0:  Writing Element%NodeIndexes(i)         437
0:  Writing Element%NodeIndexes(i)         459
0:  Writing Element%NodeIndexes(i)         988
0:  Writing Element%NodeIndexes(i)         815
0:  Writing Element%NodeIndexes(i)         356
0:  Writing Element%NodeIndexes(i)         508
0:  Writing Element%NodeIndexes(i)        1354
0:  Writing Element%NodeIndexes(i)         627
0:  Writing Element%NodeIndexes(i)          75
0:  Writing Element%NodeIndexes(i)          76
0:  Writing Element%NodeIndexes(i)         209
0:  Writing Element%NodeIndexes(i)         545
0:  Writing Element%NodeIndexes(i)        1441
0:  Writing Element%NodeIndexes(i)         784
0:  Writing Element%NodeIndexes(i)        1418
0:  Writing Element%NodeIndexes(i)        1150
0:  Writing Element%NodeIndexes(i)         783
0:  Writing Element%NodeIndexes(i)        1151
0:  Writing Element%NodeIndexes(i)        1417
0:  Writing Element%NodeIndexes(i)         691
0:  Writing Element%NodeIndexes(i)        1023
0:  Writing Element%NodeIndexes(i)        1102
0:  Writing Element%NodeIndexes(i)        3522
0:  Writing Element%NodeIndexes(i)        3521
0:  Writing Element%NodeIndexes(i)        1733
0:  Writing Element%NodeIndexes(i)        5400
0:  Writing Element%NodeIndexes(i)        1736
0:  Writing Element%NodeIndexes(i)        4233
0:  Writing Element%NodeIndexes(i)         136
0:  Writing Element%NodeIndexes(i)         871
0:  Writing Element%NodeIndexes(i)         548
0:  Writing Element%NodeIndexes(i)          51
0:  Writing Element%NodeIndexes(i)         549
0:  Writing Element%NodeIndexes(i)         872
0:  Writing Element%NodeIndexes(i)         227
0:  Writing Element%NodeIndexes(i)         997
0:  Writing Element%NodeIndexes(i)        1107
0:  Writing Element%NodeIndexes(i)        3526
0:  Writing Element%NodeIndexes(i)        1740
0:  Writing Element%NodeIndexes(i)        3525
0:  Writing Element%NodeIndexes(i)         377
0:  Writing Element%NodeIndexes(i)        1589
0:  Writing Element%NodeIndexes(i)         727
0:  Writing Element%NodeIndexes(i)         462
0:  Writing Element%NodeIndexes(i)        5402
0:  Writing Element%NodeIndexes(i)        7773
0:  Writing Element%NodeIndexes(i)        1589
0:  Writing Element%NodeIndexes(i)         287
0:  Writing Element%NodeIndexes(i)         727
0:  Writing Element%NodeIndexes(i)        3529
0:  Writing Element%NodeIndexes(i)        1745
0:  Writing Element%NodeIndexes(i)        3528
0:  Writing Element%NodeIndexes(i)         227
0:  Writing Element%NodeIndexes(i)         631
0:  Writing Element%NodeIndexes(i)         966
0:  Writing Element%NodeIndexes(i)        3531
0:  Writing Element%NodeIndexes(i)        3530
0:  Writing Element%NodeIndexes(i)        1747
0:  Writing Element%NodeIndexes(i)         392
0:  Writing Element%NodeIndexes(i)         966
0:  Writing Element%NodeIndexes(i)         631
0:  Writing Element%NodeIndexes(i)         505
0:  Writing Element%NodeIndexes(i)        5390
0:  Writing Element%NodeIndexes(i)        5403
0:  Writing Element%NodeIndexes(i)        9686
0:  Writing Element%NodeIndexes(i)       10164
0:  Writing Element%NodeIndexes(i)        1426
0:  Writing Element%NodeIndexes(i)         177
0:  Writing Element%NodeIndexes(i)        3535
0:  Writing Element%NodeIndexes(i)        3534
0:  Writing Element%NodeIndexes(i)         295
0:  Writing Element%NodeIndexes(i)        3537
0:  Writing Element%NodeIndexes(i)        3501
0:  Writing Element%NodeIndexes(i)         574
0:  Writing Element%NodeIndexes(i)        3645
0:  Writing Element%NodeIndexes(i)        5404
0:  Writing Element%NodeIndexes(i)        1100
0:  Writing Element%NodeIndexes(i)        2087
0:  Writing Element%NodeIndexes(i)        1294
0:  Writing Element%NodeIndexes(i)        3540
0:  Writing Element%NodeIndexes(i)        1760
0:  Writing Element%NodeIndexes(i)        3539
0:  Writing Element%NodeIndexes(i)         333
0:  Writing Element%NodeIndexes(i)         944
0:  Writing Element%NodeIndexes(i)         509
0:  Writing Element%NodeIndexes(i)        7776
0:  Writing Element%NodeIndexes(i)        3541
0:  Writing Element%NodeIndexes(i)        1761
0:  Writing Element%NodeIndexes(i)         296
0:  Writing Element%NodeIndexes(i)        3543
0:  Writing Element%NodeIndexes(i)        3542
0:  Writing Element%NodeIndexes(i)         297
0:  Writing Element%NodeIndexes(i)         708
0:  Writing Element%NodeIndexes(i)         491
0:  Writing Element%NodeIndexes(i)         519
0:  Writing Element%NodeIndexes(i)         788
0:  Writing Element%NodeIndexes(i)        1103
0:  Writing Element%NodeIndexes(i)         251
0:  Writing Element%NodeIndexes(i)        1103
0:  Writing Element%NodeIndexes(i)         788
0:  Writing Element%NodeIndexes(i)        3545
0:  Writing Element%NodeIndexes(i)        3544
0:  Writing Element%NodeIndexes(i)        1765
0:  Writing Element%NodeIndexes(i)         330
0:  Writing Element%NodeIndexes(i)        1131
0:  Writing Element%NodeIndexes(i)         816
0:  Writing Element%NodeIndexes(i)         313
0:  Writing Element%NodeIndexes(i)         719
0:  Writing Element%NodeIndexes(i)         833
0:  Writing Element%NodeIndexes(i)         133
0:  Writing Element%NodeIndexes(i)         134
0:  Writing Element%NodeIndexes(i)         405
0:  Writing Element%NodeIndexes(i)          53
0:  Writing Element%NodeIndexes(i)         642
0:  Writing Element%NodeIndexes(i)        1221
0:  Writing Element%NodeIndexes(i)        3547
0:  Writing Element%NodeIndexes(i)        3546
0:  Writing Element%NodeIndexes(i)        1768
0:  Writing Element%NodeIndexes(i)       10062
0:  Writing Element%NodeIndexes(i)        1082
0:  Writing Element%NodeIndexes(i)       10252
0:  Writing Element%NodeIndexes(i)        3550
0:  Writing Element%NodeIndexes(i)        3549
0:  Writing Element%NodeIndexes(i)        1773
0:  Writing Element%NodeIndexes(i)        3552
0:  Writing Element%NodeIndexes(i)        3551
0:  Writing Element%NodeIndexes(i)        1775
0:  Writing Element%NodeIndexes(i)        5573
0:  Writing Element%NodeIndexes(i)       10305
0:  Writing Element%NodeIndexes(i)       10487
0:  Writing Element%NodeIndexes(i)          88
0:  Writing Element%NodeIndexes(i)          89
0:  Writing Element%NodeIndexes(i)         624
0:  Writing Element%NodeIndexes(i)         725
0:  Writing Element%NodeIndexes(i)         326
0:  Writing Element%NodeIndexes(i)        1610
0:  Writing Element%NodeIndexes(i)        1611
0:  Writing Element%NodeIndexes(i)         325
0:  Writing Element%NodeIndexes(i)         726
0:  Writing Element%NodeIndexes(i)         296
0:  Writing Element%NodeIndexes(i)        3542
0:  Writing Element%NodeIndexes(i)        3553
0:  Writing Element%NodeIndexes(i)        1381
0:  Writing Element%NodeIndexes(i)       10198
0:  Writing Element%NodeIndexes(i)        5840
0:  Writing Element%NodeIndexes(i)        5551
0:  Writing Element%NodeIndexes(i)        2005
0:  Writing Element%NodeIndexes(i)       10176
0:  Writing Element%NodeIndexes(i)         377
0:  Writing Element%NodeIndexes(i)         783
0:  Writing Element%NodeIndexes(i)         665
0:  Writing Element%NodeIndexes(i)         625
0:  Writing Element%NodeIndexes(i)         725
0:  Writing Element%NodeIndexes(i)        1610
0:  Writing Element%NodeIndexes(i)         626
0:  Writing Element%NodeIndexes(i)        1611
0:  Writing Element%NodeIndexes(i)         726
0:  Writing Element%NodeIndexes(i)         633
0:  Writing Element%NodeIndexes(i)        1785
0:  Writing Element%NodeIndexes(i)        3554
0:  Writing Element%NodeIndexes(i)          53
0:  Writing Element%NodeIndexes(i)          54
0:  Writing Element%NodeIndexes(i)         642
0:  Writing Element%NodeIndexes(i)         209
0:  Writing Element%NodeIndexes(i)         668
0:  Writing Element%NodeIndexes(i)         545
0:  Writing Element%NodeIndexes(i)        5408
0:  Writing Element%NodeIndexes(i)        1787
0:  Writing Element%NodeIndexes(i)        4278
0:  Writing Element%NodeIndexes(i)         286
0:  Writing Element%NodeIndexes(i)         777
0:  Writing Element%NodeIndexes(i)         681
0:  Writing Element%NodeIndexes(i)       10266
0:  Writing Element%NodeIndexes(i)        9999
0:  Writing Element%NodeIndexes(i)        5872
0:  Writing Element%NodeIndexes(i)         219
0:  Writing Element%NodeIndexes(i)        3558
0:  Writing Element%NodeIndexes(i)        3557
0:  Writing Element%NodeIndexes(i)         263
0:  Writing Element%NodeIndexes(i)         470
0:  Writing Element%NodeIndexes(i)         593
0:  Writing Element%NodeIndexes(i)          11
0:  Writing Element%NodeIndexes(i)          12
0:  Writing Element%NodeIndexes(i)         646
0:  Writing Element%NodeIndexes(i)          32
0:  Writing Element%NodeIndexes(i)          33
0:  Writing Element%NodeIndexes(i)         647
0:  Writing Element%NodeIndexes(i)         593
0:  Writing Element%NodeIndexes(i)         848
0:  Writing Element%NodeIndexes(i)        5673
0:  Writing Element%NodeIndexes(i)        5410
0:  Writing Element%NodeIndexes(i)         909
0:  Writing Element%NodeIndexes(i)       10070
0:  Writing Element%NodeIndexes(i)         192
0:  Writing Element%NodeIndexes(i)         818
0:  Writing Element%NodeIndexes(i)         954
0:  Writing Element%NodeIndexes(i)         193
0:  Writing Element%NodeIndexes(i)         955
0:  Writing Element%NodeIndexes(i)         817
0:  Writing Element%NodeIndexes(i)         192
0:  Writing Element%NodeIndexes(i)         725
0:  Writing Element%NodeIndexes(i)         625
0:  Writing Element%NodeIndexes(i)         193
0:  Writing Element%NodeIndexes(i)         626
0:  Writing Element%NodeIndexes(i)         726
0:  Writing Element%NodeIndexes(i)        1677
0:  Writing Element%NodeIndexes(i)        9789
0:  Writing Element%NodeIndexes(i)        9680
0:  Writing Element%NodeIndexes(i)         417
0:  Writing Element%NodeIndexes(i)        3560
0:  Writing Element%NodeIndexes(i)        3559
0:  Writing Element%NodeIndexes(i)        8026
0:  Writing Element%NodeIndexes(i)        1803
0:  Writing Element%NodeIndexes(i)        5411
0:  Writing Element%NodeIndexes(i)         186
0:  Writing Element%NodeIndexes(i)         887
0:  Writing Element%NodeIndexes(i)         832
0:  Writing Element%NodeIndexes(i)         266
0:  Writing Element%NodeIndexes(i)        1437
0:  Writing Element%NodeIndexes(i)         607
0:  Writing Element%NodeIndexes(i)         514
0:  Writing Element%NodeIndexes(i)         607
0:  Writing Element%NodeIndexes(i)        1437
0:  Writing Element%NodeIndexes(i)         144
0:  Writing Element%NodeIndexes(i)        1094
0:  Writing Element%NodeIndexes(i)         702
0:  Writing Element%NodeIndexes(i)          43
0:  Writing Element%NodeIndexes(i)         703
0:  Writing Element%NodeIndexes(i)        1095
0:  Writing Element%NodeIndexes(i)        7129
0:  Writing Element%NodeIndexes(i)       10278
0:  Writing Element%NodeIndexes(i)       10277
0:  Writing Element%NodeIndexes(i)         373
0:  Writing Element%NodeIndexes(i)         675
0:  Writing Element%NodeIndexes(i)        1006
0:  Writing Element%NodeIndexes(i)        3562
0:  Writing Element%NodeIndexes(i)        3561
0:  Writing Element%NodeIndexes(i)        1808
0:  Writing Element%NodeIndexes(i)       10121
0:  Writing Element%NodeIndexes(i)         526
0:  Writing Element%NodeIndexes(i)        1365
0:  Writing Element%NodeIndexes(i)         401
0:  Writing Element%NodeIndexes(i)         884
0:  Writing Element%NodeIndexes(i)         740
0:  Writing Element%NodeIndexes(i)         739
0:  Writing Element%NodeIndexes(i)         440
0:  Writing Element%NodeIndexes(i)        1117
0:  Writing Element%NodeIndexes(i)        3565
0:  Writing Element%NodeIndexes(i)        1817
0:  Writing Element%NodeIndexes(i)        3564
0:  Writing Element%NodeIndexes(i)        3567
0:  Writing Element%NodeIndexes(i)        3566
0:  Writing Element%NodeIndexes(i)        1818
0:  Writing Element%NodeIndexes(i)         579
0:  Writing Element%NodeIndexes(i)        1105
0:  Writing Element%NodeIndexes(i)         477
0:  Writing Element%NodeIndexes(i)         495
0:  Writing Element%NodeIndexes(i)        1006
0:  Writing Element%NodeIndexes(i)         675
0:  Writing Element%NodeIndexes(i)        1329
0:  Writing Element%NodeIndexes(i)       10307
0:  Writing Element%NodeIndexes(i)         146
0:  Writing Element%NodeIndexes(i)          41
0:  Writing Element%NodeIndexes(i)          42
0:  Writing Element%NodeIndexes(i)        1330
0:  Writing Element%NodeIndexes(i)        2549
0:  Writing Element%NodeIndexes(i)        9747
0:  Writing Element%NodeIndexes(i)       10191
0:  Writing Element%NodeIndexes(i)         288
0:  Writing Element%NodeIndexes(i)        1378
0:  Writing Element%NodeIndexes(i)         745
0:  Writing Element%NodeIndexes(i)        9816
0:  Writing Element%NodeIndexes(i)        9921
0:  Writing Element%NodeIndexes(i)        2120
0:  Writing Element%NodeIndexes(i)         364
0:  Writing Element%NodeIndexes(i)         522
0:  Writing Element%NodeIndexes(i)        1004
0:  Writing Element%NodeIndexes(i)        1454
0:  Writing Element%NodeIndexes(i)         792
0:  Writing Element%NodeIndexes(i)        1295
0:  Writing Element%NodeIndexes(i)        1178
0:  Writing Element%NodeIndexes(i)         416
0:  Writing Element%NodeIndexes(i)         803
0:  Writing Element%NodeIndexes(i)        1177
0:  Writing Element%NodeIndexes(i)         802
0:  Writing Element%NodeIndexes(i)         415
0:  Writing Element%NodeIndexes(i)         541
0:  Writing Element%NodeIndexes(i)        1178
0:  Writing Element%NodeIndexes(i)         803
0:  Writing Element%NodeIndexes(i)         542
0:  Writing Element%NodeIndexes(i)         802
0:  Writing Element%NodeIndexes(i)        1177
0:  Writing Element%NodeIndexes(i)        9443
0:  Writing Element%NodeIndexes(i)       10527
0:  Writing Element%NodeIndexes(i)        3319
0:  Writing Element%NodeIndexes(i)         624
0:  Writing Element%NodeIndexes(i)          89
0:  Writing Element%NodeIndexes(i)        1219
0:  Writing Element%NodeIndexes(i)        1295
0:  Writing Element%NodeIndexes(i)         792
0:  Writing Element%NodeIndexes(i)         168
0:  Writing Element%NodeIndexes(i)         366
0:  Writing Element%NodeIndexes(i)        3571
0:  Writing Element%NodeIndexes(i)        3570
0:  Writing Element%NodeIndexes(i)         611
0:  Writing Element%NodeIndexes(i)         232
0:  Writing Element%NodeIndexes(i)         588
0:  Writing Element%NodeIndexes(i)         366
0:  Writing Element%NodeIndexes(i)        3570
0:  Writing Element%NodeIndexes(i)        3573
0:  Writing Element%NodeIndexes(i)        3575
0:  Writing Element%NodeIndexes(i)        3574
0:  Writing Element%NodeIndexes(i)        1834
0:  Writing Element%NodeIndexes(i)        3577
0:  Writing Element%NodeIndexes(i)        1837
0:  Writing Element%NodeIndexes(i)        3576
0:  Writing Element%NodeIndexes(i)         526
0:  Writing Element%NodeIndexes(i)       10121
0:  Writing Element%NodeIndexes(i)        8920
0:  Writing Element%NodeIndexes(i)         680
0:  Writing Element%NodeIndexes(i)        9745
0:  Writing Element%NodeIndexes(i)        9677
0:  Writing Element%NodeIndexes(i)         259
0:  Writing Element%NodeIndexes(i)        1821
0:  Writing Element%NodeIndexes(i)        7666
0:  Writing Element%NodeIndexes(i)         337
0:  Writing Element%NodeIndexes(i)        3580
0:  Writing Element%NodeIndexes(i)        3579
0:  Writing Element%NodeIndexes(i)        3582
0:  Writing Element%NodeIndexes(i)        3581
0:  Writing Element%NodeIndexes(i)        1846
0:  Writing Element%NodeIndexes(i)         186
0:  Writing Element%NodeIndexes(i)         832
0:  Writing Element%NodeIndexes(i)         533
0:  Writing Element%NodeIndexes(i)         187
0:  Writing Element%NodeIndexes(i)         831
0:  Writing Element%NodeIndexes(i)         893
0:  Writing Element%NodeIndexes(i)         366
0:  Writing Element%NodeIndexes(i)        3583
0:  Writing Element%NodeIndexes(i)        3571
0:  Writing Element%NodeIndexes(i)          22
0:  Writing Element%NodeIndexes(i)          23
0:  Writing Element%NodeIndexes(i)        1071
0:  Writing Element%NodeIndexes(i)         938
0:  Writing Element%NodeIndexes(i)         400
0:  Writing Element%NodeIndexes(i)        1566
0:  Writing Element%NodeIndexes(i)         397
0:  Writing Element%NodeIndexes(i)         573
0:  Writing Element%NodeIndexes(i)        1101
0:  Writing Element%NodeIndexes(i)         243
0:  Writing Element%NodeIndexes(i)        1101
0:  Writing Element%NodeIndexes(i)         573
0:  Writing Element%NodeIndexes(i)        1349
0:  Writing Element%NodeIndexes(i)         615
0:  Writing Element%NodeIndexes(i)         995
0:  Writing Element%NodeIndexes(i)        5418
0:  Writing Element%NodeIndexes(i)        3559
0:  Writing Element%NodeIndexes(i)        7795
0:  Writing Element%NodeIndexes(i)         295
0:  Writing Element%NodeIndexes(i)        3585
0:  Writing Element%NodeIndexes(i)        3584
0:  Writing Element%NodeIndexes(i)         330
0:  Writing Element%NodeIndexes(i)         835
0:  Writing Element%NodeIndexes(i)        1131
0:  Writing Element%NodeIndexes(i)         303
0:  Writing Element%NodeIndexes(i)         596
0:  Writing Element%NodeIndexes(i)        1330
0:  Writing Element%NodeIndexes(i)         302
0:  Writing Element%NodeIndexes(i)        1329
0:  Writing Element%NodeIndexes(i)        1529
0:  Writing Element%NodeIndexes(i)         219
0:  Writing Element%NodeIndexes(i)        3557
0:  Writing Element%NodeIndexes(i)        3588
0:  Writing Element%NodeIndexes(i)         705
0:  Writing Element%NodeIndexes(i)       10307
0:  Writing Element%NodeIndexes(i)        1329
0:  Writing Element%NodeIndexes(i)        1330
0:  Writing Element%NodeIndexes(i)          42
0:  Writing Element%NodeIndexes(i)         704
0:  Writing Element%NodeIndexes(i)        3590
0:  Writing Element%NodeIndexes(i)        1859
0:  Writing Element%NodeIndexes(i)        3589
0:  Writing Element%NodeIndexes(i)         303
0:  Writing Element%NodeIndexes(i)         756
0:  Writing Element%NodeIndexes(i)         596
0:  Writing Element%NodeIndexes(i)         302
0:  Writing Element%NodeIndexes(i)        1529
0:  Writing Element%NodeIndexes(i)         757
0:  Writing Element%NodeIndexes(i)         143
0:  Writing Element%NodeIndexes(i)         144
0:  Writing Element%NodeIndexes(i)         702
0:  Writing Element%NodeIndexes(i)          43
0:  Writing Element%NodeIndexes(i)          44
0:  Writing Element%NodeIndexes(i)         703
0:  Writing Element%NodeIndexes(i)          11
0:  Writing Element%NodeIndexes(i)         646
0:  Writing Element%NodeIndexes(i)        1298
0:  Writing Element%NodeIndexes(i)          33
0:  Writing Element%NodeIndexes(i)        1297
0:  Writing Element%NodeIndexes(i)         647
0:  Writing Element%NodeIndexes(i)         367
0:  Writing Element%NodeIndexes(i)        3594
0:  Writing Element%NodeIndexes(i)        3593
0:  Writing Element%NodeIndexes(i)         364
0:  Writing Element%NodeIndexes(i)         598
0:  Writing Element%NodeIndexes(i)         788
0:  Writing Element%NodeIndexes(i)         251
0:  Writing Element%NodeIndexes(i)         788
0:  Writing Element%NodeIndexes(i)         598
0:  Writing Element%NodeIndexes(i)         393
0:  Writing Element%NodeIndexes(i)        3597
0:  Writing Element%NodeIndexes(i)        3596
0:  Writing Element%NodeIndexes(i)        9684
0:  Writing Element%NodeIndexes(i)         987
0:  Writing Element%NodeIndexes(i)        4898
0:  Writing Element%NodeIndexes(i)         358
0:  Writing Element%NodeIndexes(i)         528
0:  Writing Element%NodeIndexes(i)        1052
0:  Writing Element%NodeIndexes(i)         383
0:  Writing Element%NodeIndexes(i)        3600
0:  Writing Element%NodeIndexes(i)        3599
0:  Writing Element%NodeIndexes(i)         423
0:  Writing Element%NodeIndexes(i)         686
0:  Writing Element%NodeIndexes(i)        1050
0:  Writing Element%NodeIndexes(i)         410
0:  Writing Element%NodeIndexes(i)         955
0:  Writing Element%NodeIndexes(i)         704
0:  Writing Element%NodeIndexes(i)         409
0:  Writing Element%NodeIndexes(i)         705
0:  Writing Element%NodeIndexes(i)         954
0:  Writing Element%NodeIndexes(i)        3602
0:  Writing Element%NodeIndexes(i)        5419
0:  Writing Element%NodeIndexes(i)        5421
0:  Writing Element%NodeIndexes(i)         295
0:  Writing Element%NodeIndexes(i)        3584
0:  Writing Element%NodeIndexes(i)        3604
0:  Writing Element%NodeIndexes(i)         353
0:  Writing Element%NodeIndexes(i)        1377
0:  Writing Element%NodeIndexes(i)         677
0:  Writing Element%NodeIndexes(i)         303
0:  Writing Element%NodeIndexes(i)         704
0:  Writing Element%NodeIndexes(i)         955
0:  Writing Element%NodeIndexes(i)         302
0:  Writing Element%NodeIndexes(i)         954
0:  Writing Element%NodeIndexes(i)         705
0:  Writing Element%NodeIndexes(i)        3606
0:  Writing Element%NodeIndexes(i)        3605
0:  Writing Element%NodeIndexes(i)        1885
0:  Writing Element%NodeIndexes(i)         221
0:  Writing Element%NodeIndexes(i)        1020
0:  Writing Element%NodeIndexes(i)         841
0:  Writing Element%NodeIndexes(i)         220
0:  Writing Element%NodeIndexes(i)         840
0:  Writing Element%NodeIndexes(i)        1019
0:  Writing Element%NodeIndexes(i)         353
0:  Writing Element%NodeIndexes(i)         836
0:  Writing Element%NodeIndexes(i)        1377
0:  Writing Element%NodeIndexes(i)         280
0:  Writing Element%NodeIndexes(i)         739
0:  Writing Element%NodeIndexes(i)        1117
0:  Writing Element%NodeIndexes(i)         841
0:  Writing Element%NodeIndexes(i)        1020
0:  Writing Element%NodeIndexes(i)        1480
0:  Writing Element%NodeIndexes(i)         840
0:  Writing Element%NodeIndexes(i)         520
0:  Writing Element%NodeIndexes(i)        1019
0:  Writing Element%NodeIndexes(i)        1308
0:  Writing Element%NodeIndexes(i)         643
0:  Writing Element%NodeIndexes(i)        1543
0:  Writing Element%NodeIndexes(i)        3607
0:  Writing Element%NodeIndexes(i)        7797
0:  Writing Element%NodeIndexes(i)        5422
0:  Writing Element%NodeIndexes(i)        6162
0:  Writing Element%NodeIndexes(i)        5423
0:  Writing Element%NodeIndexes(i)        3608
0:  Writing Element%NodeIndexes(i)         260
0:  Writing Element%NodeIndexes(i)        1372
0:  Writing Element%NodeIndexes(i)         791
0:  Writing Element%NodeIndexes(i)         643
0:  Writing Element%NodeIndexes(i)         796
0:  Writing Element%NodeIndexes(i)        1543
0:  Writing Element%NodeIndexes(i)        6096
0:  Writing Element%NodeIndexes(i)        1890
0:  Writing Element%NodeIndexes(i)        3609
0:  Writing Element%NodeIndexes(i)         306
0:  Writing Element%NodeIndexes(i)         682
0:  Writing Element%NodeIndexes(i)        1263
0:  Writing Element%NodeIndexes(i)         376
0:  Writing Element%NodeIndexes(i)         666
0:  Writing Element%NodeIndexes(i)        1156
0:  Writing Element%NodeIndexes(i)        6400
0:  Writing Element%NodeIndexes(i)        5721
0:  Writing Element%NodeIndexes(i)         920
0:  Writing Element%NodeIndexes(i)         187
0:  Writing Element%NodeIndexes(i)        1368
0:  Writing Element%NodeIndexes(i)         762
0:  Writing Element%NodeIndexes(i)         314
0:  Writing Element%NodeIndexes(i)        3611
0:  Writing Element%NodeIndexes(i)        3610
0:  Writing Element%NodeIndexes(i)         365
0:  Writing Element%NodeIndexes(i)        3613
0:  Writing Element%NodeIndexes(i)        4013
0:  Writing Element%NodeIndexes(i)         307
0:  Writing Element%NodeIndexes(i)         600
0:  Writing Element%NodeIndexes(i)        1018
0:  Writing Element%NodeIndexes(i)         373
0:  Writing Element%NodeIndexes(i)         713
0:  Writing Element%NodeIndexes(i)         613
0:  Writing Element%NodeIndexes(i)        3615
0:  Writing Element%NodeIndexes(i)       10156
0:  Writing Element%NodeIndexes(i)        5424
0:  Writing Element%NodeIndexes(i)         312
0:  Writing Element%NodeIndexes(i)        1068
0:  Writing Element%NodeIndexes(i)         551
0:  Writing Element%NodeIndexes(i)         288
0:  Writing Element%NodeIndexes(i)        1618
0:  Writing Element%NodeIndexes(i)        1378
0:  Writing Element%NodeIndexes(i)        3618
0:  Writing Element%NodeIndexes(i)        1909
0:  Writing Element%NodeIndexes(i)        3617
0:  Writing Element%NodeIndexes(i)         457
0:  Writing Element%NodeIndexes(i)        1150
0:  Writing Element%NodeIndexes(i)        1418
0:  Writing Element%NodeIndexes(i)        1424
0:  Writing Element%NodeIndexes(i)        1417
0:  Writing Element%NodeIndexes(i)        1151
0:  Writing Element%NodeIndexes(i)         175
0:  Writing Element%NodeIndexes(i)         784
0:  Writing Element%NodeIndexes(i)        1150
0:  Writing Element%NodeIndexes(i)         362
0:  Writing Element%NodeIndexes(i)         924
0:  Writing Element%NodeIndexes(i)         543
0:  Writing Element%NodeIndexes(i)         312
0:  Writing Element%NodeIndexes(i)         551
0:  Writing Element%NodeIndexes(i)        8960
0:  Writing Element%NodeIndexes(i)        3475
0:  Writing Element%NodeIndexes(i)        7868
0:  Writing Element%NodeIndexes(i)        1655
0:  Writing Element%NodeIndexes(i)         135
0:  Writing Element%NodeIndexes(i)         136
0:  Writing Element%NodeIndexes(i)         548
0:  Writing Element%NodeIndexes(i)          51
0:  Writing Element%NodeIndexes(i)          52
0:  Writing Element%NodeIndexes(i)        1114
0:  Writing Element%NodeIndexes(i)         224
0:  Writing Element%NodeIndexes(i)        1247
0:  Writing Element%NodeIndexes(i)        1066
0:  Writing Element%NodeIndexes(i)         358
0:  Writing Element%NodeIndexes(i)        1152
0:  Writing Element%NodeIndexes(i)        1331
0:  Writing Element%NodeIndexes(i)        3621
0:  Writing Element%NodeIndexes(i)        1914
0:  Writing Element%NodeIndexes(i)        3620
0:  Writing Element%NodeIndexes(i)         643
0:  Writing Element%NodeIndexes(i)         938
0:  Writing Element%NodeIndexes(i)        1566
0:  Writing Element%NodeIndexes(i)       10281
0:  Writing Element%NodeIndexes(i)        5415
0:  Writing Element%NodeIndexes(i)       10177
0:  Writing Element%NodeIndexes(i)         284
0:  Writing Element%NodeIndexes(i)         743
0:  Writing Element%NodeIndexes(i)         740
0:  Writing Element%NodeIndexes(i)         283
0:  Writing Element%NodeIndexes(i)        3624
0:  Writing Element%NodeIndexes(i)        3623
0:  Writing Element%NodeIndexes(i)        7804
0:  Writing Element%NodeIndexes(i)        5584
0:  Writing Element%NodeIndexes(i)        5427
0:  Writing Element%NodeIndexes(i)         401
0:  Writing Element%NodeIndexes(i)         740
0:  Writing Element%NodeIndexes(i)         743
0:  Writing Element%NodeIndexes(i)         362
0:  Writing Element%NodeIndexes(i)         543
0:  Writing Element%NodeIndexes(i)         993
0:  Writing Element%NodeIndexes(i)         384
0:  Writing Element%NodeIndexes(i)         591
0:  Writing Element%NodeIndexes(i)        1075
0:  Writing Element%NodeIndexes(i)         582
0:  Writing Element%NodeIndexes(i)         974
0:  Writing Element%NodeIndexes(i)        1344
0:  Writing Element%NodeIndexes(i)         209
0:  Writing Element%NodeIndexes(i)        1441
0:  Writing Element%NodeIndexes(i)       10124
0:  Writing Element%NodeIndexes(i)         306
0:  Writing Element%NodeIndexes(i)        1263
0:  Writing Element%NodeIndexes(i)         850
0:  Writing Element%NodeIndexes(i)        2651
0:  Writing Element%NodeIndexes(i)       10286
0:  Writing Element%NodeIndexes(i)       10012
0:  Writing Element%NodeIndexes(i)          59
0:  Writing Element%NodeIndexes(i)        1134
0:  Writing Element%NodeIndexes(i)        1005
0:  Writing Element%NodeIndexes(i)         352
0:  Writing Element%NodeIndexes(i)        3628
0:  Writing Element%NodeIndexes(i)        3627
0:  Writing Element%NodeIndexes(i)        3630
0:  Writing Element%NodeIndexes(i)        3629
0:  Writing Element%NodeIndexes(i)        1925
0:  Writing Element%NodeIndexes(i)         186
0:  Writing Element%NodeIndexes(i)         533
0:  Writing Element%NodeIndexes(i)         936
0:  Writing Element%NodeIndexes(i)         243
0:  Writing Element%NodeIndexes(i)         535
0:  Writing Element%NodeIndexes(i)         915
0:  Writing Element%NodeIndexes(i)         535
0:  Writing Element%NodeIndexes(i)         762
0:  Writing Element%NodeIndexes(i)        1368
0:  Writing Element%NodeIndexes(i)         224
0:  Writing Element%NodeIndexes(i)         719
0:  Writing Element%NodeIndexes(i)        1247
0:  Writing Element%NodeIndexes(i)        1981
0:  Writing Element%NodeIndexes(i)        4469
0:  Writing Element%NodeIndexes(i)        2062
0:  Writing Element%NodeIndexes(i)        1139
0:  Writing Element%NodeIndexes(i)        1050
0:  Writing Element%NodeIndexes(i)         686
0:  Writing Element%NodeIndexes(i)          47
0:  Writing Element%NodeIndexes(i)         670
0:  Writing Element%NodeIndexes(i)        1218
0:  Writing Element%NodeIndexes(i)         139
0:  Writing Element%NodeIndexes(i)         140
0:  Writing Element%NodeIndexes(i)         669
0:  Writing Element%NodeIndexes(i)        3632
0:  Writing Element%NodeIndexes(i)        3631
0:  Writing Element%NodeIndexes(i)        1930
0:  Writing Element%NodeIndexes(i)        3634
0:  Writing Element%NodeIndexes(i)        1933
0:  Writing Element%NodeIndexes(i)        3633
0:  Writing Element%NodeIndexes(i)        3590
0:  Writing Element%NodeIndexes(i)        7808
0:  Writing Element%NodeIndexes(i)        8245
0:  Writing Element%NodeIndexes(i)        5912
0:  Writing Element%NodeIndexes(i)        5428
0:  Writing Element%NodeIndexes(i)        3635
0:  Writing Element%NodeIndexes(i)       10283
0:  Writing Element%NodeIndexes(i)        6398
0:  Writing Element%NodeIndexes(i)        5808
0:  Writing Element%NodeIndexes(i)        3637
0:  Writing Element%NodeIndexes(i)        3636
0:  Writing Element%NodeIndexes(i)        1939
0:  Writing Element%NodeIndexes(i)        1344
0:  Writing Element%NodeIndexes(i)         974
0:  Writing Element%NodeIndexes(i)         309
0:  Writing Element%NodeIndexes(i)         387
0:  Writing Element%NodeIndexes(i)        3640
0:  Writing Element%NodeIndexes(i)        3639
0:  Writing Element%NodeIndexes(i)         308
0:  Writing Element%NodeIndexes(i)         636
0:  Writing Element%NodeIndexes(i)         893
0:  Writing Element%NodeIndexes(i)         543
0:  Writing Element%NodeIndexes(i)        1274
0:  Writing Element%NodeIndexes(i)         993
0:  Writing Element%NodeIndexes(i)         308
0:  Writing Element%NodeIndexes(i)         646
0:  Writing Element%NodeIndexes(i)        1248
0:  Writing Element%NodeIndexes(i)         675
0:  Writing Element%NodeIndexes(i)         900
0:  Writing Element%NodeIndexes(i)        1539
0:  Writing Element%NodeIndexes(i)         307
0:  Writing Element%NodeIndexes(i)         887
0:  Writing Element%NodeIndexes(i)         630
0:  Writing Element%NodeIndexes(i)        2184
0:  Writing Element%NodeIndexes(i)        9951
0:  Writing Element%NodeIndexes(i)         585
0:  Writing Element%NodeIndexes(i)        1255
0:  Writing Element%NodeIndexes(i)         651
0:  Writing Element%NodeIndexes(i)        1062
0:  Writing Element%NodeIndexes(i)         263
0:  Writing Element%NodeIndexes(i)        1062
0:  Writing Element%NodeIndexes(i)         651
0:  Writing Element%NodeIndexes(i)        3641
0:  Writing Element%NodeIndexes(i)        7809
0:  Writing Element%NodeIndexes(i)        5430
0:  Writing Element%NodeIndexes(i)         294
0:  Writing Element%NodeIndexes(i)        3644
0:  Writing Element%NodeIndexes(i)        3643
0:  Writing Element%NodeIndexes(i)         303
0:  Writing Element%NodeIndexes(i)        1330
0:  Writing Element%NodeIndexes(i)         704
0:  Writing Element%NodeIndexes(i)         302
0:  Writing Element%NodeIndexes(i)         705
0:  Writing Element%NodeIndexes(i)        1329
0:  Writing Element%NodeIndexes(i)         160
0:  Writing Element%NodeIndexes(i)         541
0:  Writing Element%NodeIndexes(i)        1278
0:  Writing Element%NodeIndexes(i)         574
0:  Writing Element%NodeIndexes(i)        1948
0:  Writing Element%NodeIndexes(i)        3645
0:  Writing Element%NodeIndexes(i)         324
0:  Writing Element%NodeIndexes(i)         549
0:  Writing Element%NodeIndexes(i)         863
0:  Writing Element%NodeIndexes(i)         323
0:  Writing Element%NodeIndexes(i)         862
0:  Writing Element%NodeIndexes(i)         548
0:  Writing Element%NodeIndexes(i)        6211
0:  Writing Element%NodeIndexes(i)        1951
0:  Writing Element%NodeIndexes(i)        4430
0:  Writing Element%NodeIndexes(i)         508
0:  Writing Element%NodeIndexes(i)        1232
0:  Writing Element%NodeIndexes(i)        1110
0:  Writing Element%NodeIndexes(i)         719
0:  Writing Element%NodeIndexes(i)        1554
0:  Writing Element%NodeIndexes(i)         833
0:  Writing Element%NodeIndexes(i)         251
0:  Writing Element%NodeIndexes(i)         993
0:  Writing Element%NodeIndexes(i)        1274
0:  Writing Element%NodeIndexes(i)        3648
0:  Writing Element%NodeIndexes(i)        3647
0:  Writing Element%NodeIndexes(i)        1953
0:  Writing Element%NodeIndexes(i)         485
0:  Writing Element%NodeIndexes(i)        6270
0:  Writing Element%NodeIndexes(i)        3649
0:  Writing Element%NodeIndexes(i)        2124
0:  Writing Element%NodeIndexes(i)        9852
0:  Writing Element%NodeIndexes(i)        3351
0:  Writing Element%NodeIndexes(i)         215
0:  Writing Element%NodeIndexes(i)         747
0:  Writing Element%NodeIndexes(i)        1347
0:  Writing Element%NodeIndexes(i)         216
0:  Writing Element%NodeIndexes(i)         435
0:  Writing Element%NodeIndexes(i)        1398
0:  Writing Element%NodeIndexes(i)         666
0:  Writing Element%NodeIndexes(i)         784
0:  Writing Element%NodeIndexes(i)        1156
0:  Writing Element%NodeIndexes(i)        9735
0:  Writing Element%NodeIndexes(i)         123
0:  Writing Element%NodeIndexes(i)       10478
0:  Writing Element%NodeIndexes(i)         351
0:  Writing Element%NodeIndexes(i)        3652
0:  Writing Element%NodeIndexes(i)        3651
0:  Writing Element%NodeIndexes(i)        7776
0:  Writing Element%NodeIndexes(i)        1761
0:  Writing Element%NodeIndexes(i)        3653
0:  Writing Element%NodeIndexes(i)         431
0:  Writing Element%NodeIndexes(i)        3567
0:  Writing Element%NodeIndexes(i)        3655
0:  Writing Element%NodeIndexes(i)         283
0:  Writing Element%NodeIndexes(i)        3658
0:  Writing Element%NodeIndexes(i)        3657
0:  Writing Element%NodeIndexes(i)        3660
0:  Writing Element%NodeIndexes(i)        1971
0:  Writing Element%NodeIndexes(i)        3659
0:  Writing Element%NodeIndexes(i)        3662
0:  Writing Element%NodeIndexes(i)        1974
0:  Writing Element%NodeIndexes(i)        3661
0:  Writing Element%NodeIndexes(i)        1465
0:  Writing Element%NodeIndexes(i)        1002
0:  Writing Element%NodeIndexes(i)        1469
0:  Writing Element%NodeIndexes(i)        5859
0:  Writing Element%NodeIndexes(i)        7572
0:  Writing Element%NodeIndexes(i)         737
0:  Writing Element%NodeIndexes(i)         195
0:  Writing Element%NodeIndexes(i)        1023
0:  Writing Element%NodeIndexes(i)         691
0:  Writing Element%NodeIndexes(i)        2288
0:  Writing Element%NodeIndexes(i)         579
0:  Writing Element%NodeIndexes(i)        1359
0:  Writing Element%NodeIndexes(i)         254
0:  Writing Element%NodeIndexes(i)        7811
0:  Writing Element%NodeIndexes(i)        7812
0:  Writing Element%NodeIndexes(i)         254
0:  Writing Element%NodeIndexes(i)        7812
0:  Writing Element%NodeIndexes(i)        3663
0:  Writing Element%NodeIndexes(i)        4089
0:  Writing Element%NodeIndexes(i)        5432
0:  Writing Element%NodeIndexes(i)        1979
0:  Writing Element%NodeIndexes(i)        3665
0:  Writing Element%NodeIndexes(i)        3664
0:  Writing Element%NodeIndexes(i)        8263
0:  Writing Element%NodeIndexes(i)         324
0:  Writing Element%NodeIndexes(i)         872
0:  Writing Element%NodeIndexes(i)         549
0:  Writing Element%NodeIndexes(i)         323
0:  Writing Element%NodeIndexes(i)         548
0:  Writing Element%NodeIndexes(i)         871
0:  Writing Element%NodeIndexes(i)       10272
0:  Writing Element%NodeIndexes(i)       10246
0:  Writing Element%NodeIndexes(i)         878
0:  Writing Element%NodeIndexes(i)         286
0:  Writing Element%NodeIndexes(i)         753
0:  Writing Element%NodeIndexes(i)         604
0:  Writing Element%NodeIndexes(i)        1671
0:  Writing Element%NodeIndexes(i)         234
0:  Writing Element%NodeIndexes(i)         603
0:  Writing Element%NodeIndexes(i)        3667
0:  Writing Element%NodeIndexes(i)        1985
0:  Writing Element%NodeIndexes(i)        3666
0:  Writing Element%NodeIndexes(i)         428
0:  Writing Element%NodeIndexes(i)        3670
0:  Writing Element%NodeIndexes(i)        3669
0:  Writing Element%NodeIndexes(i)        5433
0:  Writing Element%NodeIndexes(i)        3602
0:  Writing Element%NodeIndexes(i)        7813
0:  Writing Element%NodeIndexes(i)        5711
0:  Writing Element%NodeIndexes(i)        5434
0:  Writing Element%NodeIndexes(i)        3671
0:  Writing Element%NodeIndexes(i)         288
0:  Writing Element%NodeIndexes(i)         695
0:  Writing Element%NodeIndexes(i)        1618
0:  Writing Element%NodeIndexes(i)        1458
0:  Writing Element%NodeIndexes(i)        1505
0:  Writing Element%NodeIndexes(i)        1125
0:  Writing Element%NodeIndexes(i)        1573
0:  Writing Element%NodeIndexes(i)         678
0:  Writing Element%NodeIndexes(i)        1506
0:  Writing Element%NodeIndexes(i)         556
0:  Writing Element%NodeIndexes(i)        1125
0:  Writing Element%NodeIndexes(i)        1505
0:  Writing Element%NodeIndexes(i)        1547
0:  Writing Element%NodeIndexes(i)        1506
0:  Writing Element%NodeIndexes(i)         678
0:  Writing Element%NodeIndexes(i)        3628
0:  Writing Element%NodeIndexes(i)        3672
0:  Writing Element%NodeIndexes(i)        1923
0:  Writing Element%NodeIndexes(i)        1151
0:  Writing Element%NodeIndexes(i)         727
0:  Writing Element%NodeIndexes(i)        1132
0:  Writing Element%NodeIndexes(i)         354
0:  Writing Element%NodeIndexes(i)        3675
0:  Writing Element%NodeIndexes(i)        3674
0:  Writing Element%NodeIndexes(i)        1517
0:  Writing Element%NodeIndexes(i)         948
0:  Writing Element%NodeIndexes(i)         717
0:  Writing Element%NodeIndexes(i)        1516
0:  Writing Element%NodeIndexes(i)         718
0:  Writing Element%NodeIndexes(i)         949
0:  Writing Element%NodeIndexes(i)         560
0:  Writing Element%NodeIndexes(i)        1555
0:  Writing Element%NodeIndexes(i)         821
0:  Writing Element%NodeIndexes(i)         199
0:  Writing Element%NodeIndexes(i)         621
0:  Writing Element%NodeIndexes(i)         780
0:  Writing Element%NodeIndexes(i)         329
0:  Writing Element%NodeIndexes(i)         780
0:  Writing Element%NodeIndexes(i)         621
0:  Writing Element%NodeIndexes(i)         292
0:  Writing Element%NodeIndexes(i)        5435
0:  Writing Element%NodeIndexes(i)        5455
0:  Writing Element%NodeIndexes(i)        9121
0:  Writing Element%NodeIndexes(i)        6449
0:  Writing Element%NodeIndexes(i)        5437
0:  Writing Element%NodeIndexes(i)        9121
0:  Writing Element%NodeIndexes(i)        5437
0:  Writing Element%NodeIndexes(i)         801
0:  Writing Element%NodeIndexes(i)        1152
0:  Writing Element%NodeIndexes(i)         358
0:  Writing Element%NodeIndexes(i)         564
0:  Writing Element%NodeIndexes(i)        9689
0:  Writing Element%NodeIndexes(i)       10410
0:  Writing Element%NodeIndexes(i)        6221
0:  Writing Element%NodeIndexes(i)         413
0:  Writing Element%NodeIndexes(i)         904
0:  Writing Element%NodeIndexes(i)         617
0:  Writing Element%NodeIndexes(i)         412
0:  Writing Element%NodeIndexes(i)         618
0:  Writing Element%NodeIndexes(i)         903
0:  Writing Element%NodeIndexes(i)        9543
0:  Writing Element%NodeIndexes(i)        1659
0:  Writing Element%NodeIndexes(i)        5439
0:  Writing Element%NodeIndexes(i)         253
0:  Writing Element%NodeIndexes(i)        6522
0:  Writing Element%NodeIndexes(i)        5440
0:  Writing Element%NodeIndexes(i)        5441
0:  Writing Element%NodeIndexes(i)        3614
0:  Writing Element%NodeIndexes(i)        7814
0:  Writing Element%NodeIndexes(i)         482
0:  Writing Element%NodeIndexes(i)        7221
0:  Writing Element%NodeIndexes(i)        3676
0:  Writing Element%NodeIndexes(i)         199
0:  Writing Element%NodeIndexes(i)         728
0:  Writing Element%NodeIndexes(i)         819
0:  Writing Element%NodeIndexes(i)         198
0:  Writing Element%NodeIndexes(i)         820
0:  Writing Element%NodeIndexes(i)         729
0:  Writing Element%NodeIndexes(i)         191
0:  Writing Element%NodeIndexes(i)        3680
0:  Writing Element%NodeIndexes(i)        3679
0:  Writing Element%NodeIndexes(i)         308
0:  Writing Element%NodeIndexes(i)        1248
0:  Writing Element%NodeIndexes(i)         720
0:  Writing Element%NodeIndexes(i)        5438
0:  Writing Element%NodeIndexes(i)        4340
0:  Writing Element%NodeIndexes(i)        6183
0:  Writing Element%NodeIndexes(i)          47
0:  Writing Element%NodeIndexes(i)          48
0:  Writing Element%NodeIndexes(i)         670
0:  Writing Element%NodeIndexes(i)         669
0:  Writing Element%NodeIndexes(i)         140
0:  Writing Element%NodeIndexes(i)        1217
0:  Writing Element%NodeIndexes(i)         175
0:  Writing Element%NodeIndexes(i)        1021
0:  Writing Element%NodeIndexes(i)         681
0:  Writing Element%NodeIndexes(i)         433
0:  Writing Element%NodeIndexes(i)        3683
0:  Writing Element%NodeIndexes(i)        3682
0:  Writing Element%NodeIndexes(i)         332
0:  Writing Element%NodeIndexes(i)        6194
0:  Writing Element%NodeIndexes(i)        5442
0:  Writing Element%NodeIndexes(i)        1451
0:  Writing Element%NodeIndexes(i)        1065
0:  Writing Element%NodeIndexes(i)        5458
0:  Writing Element%NodeIndexes(i)         101
0:  Writing Element%NodeIndexes(i)         651
0:  Writing Element%NodeIndexes(i)        1255
0:  Writing Element%NodeIndexes(i)         227
0:  Writing Element%NodeIndexes(i)        1107
0:  Writing Element%NodeIndexes(i)         631
0:  Writing Element%NodeIndexes(i)        3686
0:  Writing Element%NodeIndexes(i)        3685
0:  Writing Element%NodeIndexes(i)        2024
0:  Writing Element%NodeIndexes(i)        3688
0:  Writing Element%NodeIndexes(i)        2027
0:  Writing Element%NodeIndexes(i)        3687
0:  Writing Element%NodeIndexes(i)         446
0:  Writing Element%NodeIndexes(i)        1413
0:  Writing Element%NodeIndexes(i)         649
0:  Writing Element%NodeIndexes(i)        3690
0:  Writing Element%NodeIndexes(i)        2030
0:  Writing Element%NodeIndexes(i)        3689
0:  Writing Element%NodeIndexes(i)         436
0:  Writing Element%NodeIndexes(i)         747
0:  Writing Element%NodeIndexes(i)        1168
0:  Writing Element%NodeIndexes(i)        9937
0:  Writing Element%NodeIndexes(i)        9769
0:  Writing Element%NodeIndexes(i)       10362
0:  Writing Element%NodeIndexes(i)         202
0:  Writing Element%NodeIndexes(i)         777
0:  Writing Element%NodeIndexes(i)         604
0:  Writing Element%NodeIndexes(i)         318
0:  Writing Element%NodeIndexes(i)         879
0:  Writing Element%NodeIndexes(i)         559
0:  Writing Element%NodeIndexes(i)         260
0:  Writing Element%NodeIndexes(i)         791
0:  Writing Element%NodeIndexes(i)        1540
0:  Writing Element%NodeIndexes(i)        1371
0:  Writing Element%NodeIndexes(i)        1541
0:  Writing Element%NodeIndexes(i)         790
0:  Writing Element%NodeIndexes(i)         336
0:  Writing Element%NodeIndexes(i)        1008
0:  Writing Element%NodeIndexes(i)         565
0:  Writing Element%NodeIndexes(i)       10061
0:  Writing Element%NodeIndexes(i)        6176
0:  Writing Element%NodeIndexes(i)         976
0:  Writing Element%NodeIndexes(i)         312
0:  Writing Element%NodeIndexes(i)        1312
0:  Writing Element%NodeIndexes(i)        1410
0:  Writing Element%NodeIndexes(i)        1516
0:  Writing Element%NodeIndexes(i)         715
0:  Writing Element%NodeIndexes(i)         840
0:  Writing Element%NodeIndexes(i)        1517
0:  Writing Element%NodeIndexes(i)         841
0:  Writing Element%NodeIndexes(i)         716
0:  Writing Element%NodeIndexes(i)        3692
0:  Writing Element%NodeIndexes(i)        2034
0:  Writing Element%NodeIndexes(i)        5444
0:  Writing Element%NodeIndexes(i)         321
0:  Writing Element%NodeIndexes(i)         840
0:  Writing Element%NodeIndexes(i)         715
0:  Writing Element%NodeIndexes(i)         322
0:  Writing Element%NodeIndexes(i)         716
0:  Writing Element%NodeIndexes(i)         841
0:  Writing Element%NodeIndexes(i)        5445
0:  Writing Element%NodeIndexes(i)        2036
0:  Writing Element%NodeIndexes(i)        4509
0:  Writing Element%NodeIndexes(i)         263
0:  Writing Element%NodeIndexes(i)         593
0:  Writing Element%NodeIndexes(i)         789
0:  Writing Element%NodeIndexes(i)         313
0:  Writing Element%NodeIndexes(i)         928
0:  Writing Element%NodeIndexes(i)        1247
0:  Writing Element%NodeIndexes(i)        3558
0:  Writing Element%NodeIndexes(i)        3693
0:  Writing Element%NodeIndexes(i)        1793
0:  Writing Element%NodeIndexes(i)        3695
0:  Writing Element%NodeIndexes(i)        3694
0:  Writing Element%NodeIndexes(i)        2038
0:  Writing Element%NodeIndexes(i)         336
0:  Writing Element%NodeIndexes(i)         565
0:  Writing Element%NodeIndexes(i)         875
0:  Writing Element%NodeIndexes(i)         360
0:  Writing Element%NodeIndexes(i)         551
0:  Writing Element%NodeIndexes(i)        1468
0:  Writing Element%NodeIndexes(i)         724
0:  Writing Element%NodeIndexes(i)        1294
0:  Writing Element%NodeIndexes(i)        1464
0:  Writing Element%NodeIndexes(i)        1312
0:  Writing Element%NodeIndexes(i)         312
[...]
0: VariableAdd: Adding variable > zb < of size 10367
0: VariableGet: Performing interpolation with projector
0: InterpolateMesh2Mesh: Applying exiting projector in interpolation
0: InterpolateMeshToMesh: Number of unfound nodes in serial: 10367
0:  Interpolation range:zb  -569.807598150434        62.5243692157222     
0: VariableGet: Interpolation time for > zb < :   9.730E-04
0: VariableAdd: Adding variable > bedrock < of size 10367
0: VariableGet: Performing interpolation with projector
0: InterpolateMesh2Mesh: Applying exiting projector in interpolation
0: InterpolateMeshToMesh: Number of unfound nodes in serial: 10367
0:  Interpolation range:bedrock  -598.649428029295        62.5243692157222     
0: VariableGet: Interpolation time for > bedrock < :   9.770E-04
0: VariableAdd: Adding variable > elementsize < of size 10367
0: VariableGet: Performing interpolation with projector
0: InterpolateMesh2Mesh: Applying exiting projector in interpolation
0: InterpolateMeshToMesh: Number of unfound nodes in serial: 10367
0:  Interpolation range:elementsize   500.000000000000        2000.00000000000     
0: VariableGet: Interpolation time for > elementsize < :   9.730E-04
0: VariableAdd: Adding variable > mmg_var < of size 10367
0: VariableGet: Performing interpolation with projector
0: InterpolateMesh2Mesh: Applying exiting projector in interpolation
0: InterpolateMeshToMesh: Number of unfound nodes in serial: 10367
0:  Interpolation range:mmg_var  0.000000000000000E+000  0.000000000000000E+000
0: VariableGet: Interpolation time for > mmg_var < :   9.710E-04
0: VariableAdd: Adding variable > partition < of size 1
0: VariableAdd: Adding variable > vx < of size 10367
0: VariableGet: Performing interpolation with projector
0: InterpolateMesh2Mesh: Applying exiting projector in interpolation
0: InterpolateMeshToMesh: Number of unfound nodes in serial: 10367
0:  Interpolation range:vx  -82.3259917646626        148.292757271502     
0: VariableGet: Interpolation time for > vx < :   1.011E-03
0: VariableAdd: Adding variable > vy < of size 10367
0: VariableGet: Performing interpolation with projector
0: InterpolateMesh2Mesh: Applying exiting projector in interpolation
0: InterpolateMeshToMesh: Number of unfound nodes in serial: 10367
0:  Interpolation range:vy  -13.6901688262215        299.664243989511     
0: VariableGet: Interpolation time for > vy < :   1.001E-03
0: MeshStabParams: Computing stabilization parameters
0: MeshStabParams: Elapsed REAL time:     0.0065 (s)
0: CreateMatrix: Creating initial permutation
0: CreateMatrix: Creating inverse of initial order of size: 10367
0: CreateMatrix: Creating list matrix for equation: groundedmask
0: MakeListMatrix: Creating list matrix
0: OptimizeBandwidth: ---------------------------------------------------------
0: OptimizeBandwidth: Computing matrix structure for: groundedmask...done.
0: OptimizeBandwidth: Half bandwidth without optimization: 10243
0: OptimizeBandwidth: 
0: OptimizeBandwidth: Bandwidth Optimization ...done.
0: OptimizeBandwidth: Half bandwidth after optimization: 229
0: OptimizeBandwidth: ---------------------------------------------------------
0: CreateMatrix: Initializing list matrix for equation
0: CRS_CreateMatrix: Creating CRS Matrix of size: 10367
0: CRS_CreateMatrix: Creating CRS Matrix with nofs: 72237
0: CreateMatrix: Matrix created
0: MMGSolver: Updated for variable: groundedmask
0: CreateMatrix: Creating initial permutation
0: CreateMatrix: Creating inverse of initial order of size: 10367
0: CreateMatrix: Creating list matrix for equation: solvedistance
0: MakeListMatrix: Creating list matrix
0: OptimizeBandwidth: ---------------------------------------------------------
0: OptimizeBandwidth: Computing matrix structure for: solvedistance...done.
0: OptimizeBandwidth: Half bandwidth without optimization: 10243
0: OptimizeBandwidth: 
0: OptimizeBandwidth: Bandwidth Optimization ...done.
0: OptimizeBandwidth: Half bandwidth after optimization: 229
0: OptimizeBandwidth: ---------------------------------------------------------
0: CreateMatrix: Initializing list matrix for equation
0: CRS_CreateMatrix: Creating CRS Matrix of size: 10367
0: CRS_CreateMatrix: Creating CRS Matrix with nofs: 72237
0: CreateMatrix: Matrix created
0: MMGSolver: Updated for variable: distance
0: CreateMatrix: Creating initial permutation
0: CreateMatrix: Creating list matrix for equation: initialise fn
0: MakeListMatrix: Creating list matrix
0: OptimizeBandwidth: ---------------------------------------------------------
0: OptimizeBandwidth: Computing matrix structure for: initialise fn...done.
0: OptimizeBandwidth: Half bandwidth without optimization: 10243
0: OptimizeBandwidth: ---------------------------------------------------------
0: CreateMatrix: Initializing list matrix for equation
0: CRS_CreateMatrix: Creating CRS Matrix of size: 10367
0: CRS_CreateMatrix: Creating CRS Matrix with nofs: 72237
0: CreateMatrix: Matrix created
0: MMGSolver: Updated for variable: initialise fn_var
0: CreateMatrix: Creating initial permutation
0: CreateMatrix: Creating list matrix for equation: mmg
0: MakeListMatrix: Creating list matrix
0: OptimizeBandwidth: ---------------------------------------------------------
0: OptimizeBandwidth: Computing matrix structure for: mmg...done.
0: OptimizeBandwidth: Half bandwidth without optimization: 10243
0: OptimizeBandwidth: ---------------------------------------------------------
0: CreateMatrix: Initializing list matrix for equation
0: CRS_CreateMatrix: Creating CRS Matrix of size: 10367
0: CRS_CreateMatrix: Creating CRS Matrix with nofs: 72237
0: CreateMatrix: Matrix created
0: MMGSolver: Updated for variable: mmg_var
0: MMGSolver: --**--New mesh ready
0: MMGSolver: --**--    NumberOfNodes:10367
0: MMGSolver: --**--    NumberOfBulkElements: 20569
0: MMGSolver: --**--    NumberOfEdges: 0
0: MMGSolver: --**--    NumberOfBoundaryElements: 163
0: Loading user function library: [ElmerIce_MeshAdapt2D]...[MMG2DSolver_post]
0: UpdateDependentObjects: Updating objects depending on primary field in steady state
0: DerivateExportedVariables: Derivating variables, if any!
0: DerivateExportedVariables: Derivating done for variables: 0
0: SaveCurrent: Saving information on current step
0: SetActiveElementsTable: Creating active element table for: result output
0: SetActiveElementsTable: Number of active elements found : 20569
0: SingleSolver: Attempting to call solver
0: SingleSolver: Solver Equation string is: result output
0: ResultOutputSolver: -------------------------------------
0: ResultOutputSolver: Number of output meshes: 2
0: ResultOutputSolver: Working on mesh: square_iso_N6
0: ResultOutputSolver: Dimension of mesh is: 2
0: ResultOutputSolver: Recreating list for saving
0: CreateListForSaving: Field Variables for Saving
0: CreateListForSaving: Scalar Field 1: groundedmask
0: CreateListForSaving: Scalar Field 2: distance
0: CreateListForSaving: Scalar Field 3: zs
0: CreateListForSaving: Scalar Field 4: zb
0: CreateListForSaving: Scalar Field 5: bedrock
0: CreateListForSaving: Scalar Field 6: elementsize
0: CreateListForSaving: Scalar Field 7: vx
0: CreateListForSaving: Scalar Field 8: vy
0: ResultOutputSolver: Saving in unstructured VTK XML (.vtu) format
0: VtuOutputSolver: Full filename base is: square_iso_N6/square_iso_N6_EkstroemLGM
0: GenerateSaveMask: Allocating NodePerm of size: 10367
0: GenerateSaveMask: Allocating ActiveElem of size: 20732
0: GenerateSaveMask: Number of active elements 20732 out of 20732
0: GenerateSaveMask: Number of geometry nodes 10367 out of 10367
0: VtuOutputSolver: Setting offset for boundary entities: 100
0: VtuOutputSolver: Writing the vtu file: square_iso_N6/square_iso_N6_EkstroemLGM_t0006.vtu
0: AscBinWriteInit: Initializing buffered ascii/binary writing
0: AscBinWriteInit: Writing in binary
0: AscBinWriteInit: Writing in double precision
0: AscBinWriteInit: Writing to unit number: 58
0: AscBinWriteInit: Size of buffer is: 10367
0: WriteVtuFile: Writing nodal fields
0: WriteVtuFile: Saving variable: groundedmask
0: WriteVtuFile: Saving variable: distance
0: WriteVtuFile: Saving variable: zs
0: WriteVtuFile: Saving variable: zb
0: WriteVtuFile: Saving variable: bedrock
0: WriteVtuFile: Saving variable: elementsize
0: WriteVtuFile: Saving variable: vx
0: WriteVtuFile: Saving variable: vy
0: WriteVtuFile: Number of nodal fields written: 8
0: WriteVtuFile: Writing elemental fields
0: WriteVtuFile: Number of elemental fields written: 0
0: WriteVtuFile: Writing entity IDs for bodies and boundaries
0: WriteVtuFile: Writing coordinates for each used node
0: WriteVtuFile: Writing the elemental connectivity data
0: WriteVtuFile: Writing nodal fields
0: WriteVtuFile: Saving variable: groundedmask
0: WriteVtuFile: Saving variable: distance
0: WriteVtuFile: Saving variable: zs
0: WriteVtuFile: Saving variable: zb
0: WriteVtuFile: Saving variable: bedrock
0: WriteVtuFile: Saving variable: elementsize
0: WriteVtuFile: Saving variable: vx
0: WriteVtuFile: Saving variable: vy
0: WriteVtuFile: Writing elemental fields
0: AscBinWriteFree: Terminating buffered ascii/binary writing
0: WriteVtuFile: Finished writing file
0: VtuOutputSolver: Finished writing vtu file
0: VtuOutputSolver: All done for now
0: ResultOutputSolver: -------------------------------------
0: ResultOutputSolver: Working on mesh: square_iso_N5
0: ResultOutputSolver: Dimension of mesh is: 2
0: ResultOutputSolver: Recreating list for saving
0: CreateListForSaving: Field Variables for Saving
0: CreateListForSaving: Scalar Field 1: groundedmask
0: CreateListForSaving: Scalar Field 2: distance
0: CreateListForSaving: Scalar Field 3: zs
0: CreateListForSaving: Scalar Field 4: zb
0: CreateListForSaving: Scalar Field 5: bedrock
0: CreateListForSaving: Scalar Field 6: elementsize
0: CreateListForSaving: Scalar Field 7: vx
0: CreateListForSaving: Scalar Field 8: vy
0: ResultOutputSolver: Saving in unstructured VTK XML (.vtu) format
0: VtuOutputSolver: Full filename base is: square_iso_N5/square_iso_N5_EkstroemLGM
0: GenerateSaveMask: Allocating NodePerm of size: 10393
0: GenerateSaveMask: Allocating ActiveElem of size: 20784
0: GenerateSaveMask: Number of active elements 20784 out of 20784
0: GenerateSaveMask: Number of geometry nodes 10393 out of 10393
0: VtuOutputSolver: Setting offset for boundary entities: 100
0: VtuOutputSolver: Writing the vtu file: square_iso_N5/square_iso_N5_EkstroemLGM_t0006.vtu
0: AscBinWriteInit: Initializing buffered ascii/binary writing
0: AscBinWriteInit: Writing in binary
0: AscBinWriteInit: Writing in double precision
0: AscBinWriteInit: Writing to unit number: 58
0: AscBinWriteInit: Size of buffer is: 10393
0: WriteVtuFile: Writing nodal fields
0: WriteVtuFile: Saving variable: groundedmask
0: WriteVtuFile: Saving variable: distance
0: WriteVtuFile: Saving variable: zs
0: WriteVtuFile: Saving variable: zb
0: WriteVtuFile: Saving variable: bedrock
0: WriteVtuFile: Saving variable: elementsize
0: WriteVtuFile: Saving variable: vx
0: WriteVtuFile: Saving variable: vy
0: WriteVtuFile: Number of nodal fields written: 8
0: WriteVtuFile: Writing elemental fields
0: WriteVtuFile: Number of elemental fields written: 0
0: WriteVtuFile: Writing entity IDs for bodies and boundaries
0: WriteVtuFile: Writing coordinates for each used node
0: WriteVtuFile: Writing the elemental connectivity data
0: WriteVtuFile: Writing nodal fields
0: WriteVtuFile: Saving variable: groundedmask
0: WriteVtuFile: Saving variable: distance
0: WriteVtuFile: Saving variable: zs
0: WriteVtuFile: Saving variable: zb
0: WriteVtuFile: Saving variable: bedrock
0: WriteVtuFile: Saving variable: elementsize
0: WriteVtuFile: Saving variable: vx
0: WriteVtuFile: Saving variable: vy
0: WriteVtuFile: Writing elemental fields
0: AscBinWriteFree: Terminating buffered ascii/binary writing
0: WriteVtuFile: Finished writing file
0: VtuOutputSolver: Finished writing vtu file
0: VtuOutputSolver: All done for now
0: ResultOutputSolver: -------------------------------------
0: ResultOutputSolver: Working on mesh: square_iso_N4
0: ResultOutputSolver: Skipping inactive mesh: square_iso_N4
0: ResultOutputSolver: Working on mesh: square_iso_N3
0: ResultOutputSolver: Skipping inactive mesh: square_iso_N3
0: ResultOutputSolver: Working on mesh: square_iso_N2
0: ResultOutputSolver: Skipping inactive mesh: square_iso_N2
0: ResultOutputSolver: Working on mesh: square_iso_N1
0: ResultOutputSolver: Skipping inactive mesh: square_iso_N1
0: ResultOutputSolver: Working on mesh: Mesh
0: ResultOutputSolver: Skipping inactive mesh: Mesh
0: Loading user function library: [ResultOutputSolve]...[ResultOutputSolver_post]
0: UpdateDependentObjects: Updating objects depending on primary field in steady state
0: DerivateExportedVariables: Derivating variables, if any!
0: DerivateExportedVariables: Derivating done for variables: 0
0: ListPopNameSpace: No namespace entry to delete
0: ListPopNameSpace: No namespace entry to delete
0: ReloadInputFile: Realoading input file
0: LoadInputFile: Loading input file:
0: ElmerSolver: *** Elmer Solver: ALL DONE ***
0: FreeModel: Freeing meshes
0: ReleaseMesh: Releasing mesh variables
0: ReleaseVariableList: Trying to release variable: groundedmask
0: ReleaseVariableList: Trying to release variable: distance
0: ReleaseVariableList: Trying to release variable: initialise fn_var
0: ReleaseVariableList: Trying to release variable: zs
0: ReleaseVariableList: Trying to release variable: zb
0: ReleaseVariableList: Trying to release variable: bedrock
0: ReleaseVariableList: Trying to release variable: elementsize
0: ReleaseVariableList: Trying to release variable: mmg_var
0: ReleaseVariableList: Trying to release variable: vx
0: ReleaseVariableList: Trying to release variable: vy
0: ReleaseMesh: Releasing mesh nodes
0: ReleaseMesh: Releasing mesh quadrant tree
0: ReleaseMesh: Releasing mesh elements
0: ReleaseMesh: Releasing mesh finished
0: ReleaseMesh: Releasing mesh variables
0: ReleaseVariableList: Trying to release variable: groundedmask
0: ReleaseVariableList: Trying to release variable: distance
0: ReleaseVariableList: Trying to release variable: initialise fn_var
0: ReleaseVariableList: Trying to release variable: zs
0: ReleaseVariableList: Trying to release variable: zb
0: ReleaseVariableList: Trying to release variable: bedrock
0: ReleaseVariableList: Trying to release variable: elementsize
0: ReleaseVariableList: Trying to release variable: mmg_var
0: ReleaseVariableList: Trying to release variable: vx
0: ReleaseVariableList: Trying to release variable: vy
0: ReleaseMesh: Releasing mesh nodes
0: ReleaseMesh: Releasing mesh projector
0: ReleaseMesh: Releasing mesh quadrant tree
0: ReleaseMesh: Releasing mesh elements
0: ReleaseMesh: Releasing mesh finished
0: ReleaseMesh: Releasing mesh variables
0: ReleaseVariableList: Trying to release variable: groundedmask
0: ReleaseVariableList: Trying to release variable: distance
0: ReleaseVariableList: Trying to release variable: initialise fn_var
0: ReleaseVariableList: Trying to release variable: zs
0: ReleaseVariableList: Trying to release variable: zb
0: ReleaseVariableList: Trying to release variable: bedrock
0: ReleaseVariableList: Trying to release variable: elementsize
0: ReleaseVariableList: Trying to release variable: mmg_var
0: ReleaseVariableList: Trying to release variable: vx
0: ReleaseVariableList: Trying to release variable: vy
0: ReleaseMesh: Releasing mesh nodes
0: ReleaseMesh: Releasing mesh projector
0: ReleaseMesh: Releasing mesh quadrant tree
0: ReleaseMesh: Releasing mesh elements
0: ReleaseMesh: Releasing mesh finished
0: ReleaseMesh: Releasing mesh variables
0: ReleaseVariableList: Trying to release variable: groundedmask
0: ReleaseVariableList: Trying to release variable: distance
0: ReleaseVariableList: Trying to release variable: initialise fn_var
0: ReleaseVariableList: Trying to release variable: zs
0: ReleaseVariableList: Trying to release variable: zb
0: ReleaseVariableList: Trying to release variable: bedrock
0: ReleaseVariableList: Trying to release variable: elementsize
0: ReleaseVariableList: Trying to release variable: mmg_var
0: ReleaseVariableList: Trying to release variable: vx
0: ReleaseVariableList: Trying to release variable: vy
0: ReleaseMesh: Releasing mesh nodes
0: ReleaseMesh: Releasing mesh projector
0: ReleaseMesh: Releasing mesh quadrant tree
0: ReleaseMesh: Releasing mesh elements
0: ReleaseMesh: Releasing mesh finished
0: ReleaseMesh: Releasing mesh variables
0: ReleaseVariableList: Trying to release variable: groundedmask
0: ReleaseVariableList: Trying to release variable: distance
0: ReleaseVariableList: Trying to release variable: initialise fn_var
0: ReleaseVariableList: Trying to release variable: zs
0: ReleaseVariableList: Trying to release variable: zb
0: ReleaseVariableList: Trying to release variable: bedrock
0: ReleaseVariableList: Trying to release variable: elementsize
0: ReleaseVariableList: Trying to release variable: mmg_var
0: ReleaseVariableList: Trying to release variable: vx
0: ReleaseVariableList: Trying to release variable: vy
0: ReleaseMesh: Releasing mesh nodes
0: ReleaseMesh: Releasing mesh projector
0: ReleaseMesh: Releasing mesh quadrant tree
0: ReleaseMesh: Releasing mesh elements
0: ReleaseMesh: Releasing mesh finished
0: ReleaseMesh: Releasing mesh variables
0: ReleaseVariableList: Trying to release variable: groundedmask
0: ReleaseVariableList: Trying to release variable: distance
0: ReleaseVariableList: Trying to release variable: initialise fn_var
0: ReleaseVariableList: Trying to release variable: zs
0: ReleaseVariableList: Trying to release variable: zb
0: ReleaseVariableList: Trying to release variable: bedrock
0: ReleaseVariableList: Trying to release variable: elementsize
0: ReleaseVariableList: Trying to release variable: mmg_var
0: ReleaseVariableList: Trying to release variable: vx
0: ReleaseVariableList: Trying to release variable: vy
0: ReleaseMesh: Releasing mesh nodes
0: ReleaseMesh: Releasing mesh projector
0: ReleaseMesh: Releasing mesh quadrant tree
0: ReleaseMesh: Releasing mesh elements
0: ReleaseMesh: Releasing mesh finished
0: ReleaseMesh: Releasing mesh variables
0: ReleaseVariableList: Trying to release variable: groundedmask
0: ReleaseVariableList: Trying to release variable: distance
0: ReleaseVariableList: Trying to release variable: initialise fn_var
0: ReleaseVariableList: Trying to release variable: zs
0: ReleaseVariableList: Trying to release variable: zb
0: ReleaseVariableList: Trying to release variable: bedrock
0: ReleaseVariableList: Trying to release variable: elementsize
0: ReleaseVariableList: Trying to release variable: mmg_var
0: ReleaseVariableList: Trying to release variable: vx
0: ReleaseVariableList: Trying to release variable: vy
0: ReleaseMesh: Releasing mesh nodes
0: ReleaseMesh: Releasing mesh projector
0: ReleaseMesh: Releasing mesh elements
0: ReleaseMesh: Releasing mesh finished
0: FreeModel: Freeing constants list
0: FreeModel: Freeing simulation list
0: FreeModel: Freeing boundary lists
0: FreeModel: Freeing solvers
0: FreeModel: Solver: 1
0: FreeSolver: Free solver matrix
0: FreeSolver: Free solver miscellaneous
0: FreeModel: Solver: 2
0: FreeSolver: Free solver matrix
0: FreeSolver: Free solver miscellaneous
0: FreeModel: Solver: 3
0: FreeSolver: Free solver matrix
0: FreeSolver: Free solver miscellaneous
0: FreeModel: Solver: 4
0: FreeSolver: Free solver matrix
0: FreeSolver: Free solver miscellaneous
0: FreeModel: Solver: 5
0: FreeSolver: Free solver matrix
0: FreeSolver: Free solver miscellaneous
0: FreeModel: Solver: 6
0: FreeSolver: Free solver matrix
0: FreeSolver: Free solver miscellaneous
0: FreeModel: Freeing initial conditions lists
0: FreeModel: Freeing body lists
0: FreeModel: Freeing equations lists
0: FreeModel: Freeing body forces lists
0: ElmerSolver: The end
0: SOLVER TOTAL TIME(CPU,REAL):        18.97       21.98
0: ELMER SOLVER FINISHED AT: 2022/09/21 09:39:10
